STS005_prime_MMGBSA_result_18
                    3D
 Schrodinger Suite 2021-3.
140140  0  0  1  0            999 V2000
  199.0437  217.2286  250.3927 C   0  0  0  0  0  0
  199.2422  216.3342  251.3728 N   0  0  0  0  0  0
  198.8946  216.5808  252.7790 C   0  0  1  0  0  0
  197.5706  215.8432  253.0390 C   0  0  0  0  0  0
  196.5487  216.2049  252.2560 N   0  0  0  0  0  0
  195.1891  215.7062  252.3978 C   0  0  1  0  0  0
  194.4500  216.7068  253.2831 C   0  0  0  0  0  0
  193.9610  216.2458  254.4327 N   0  0  0  0  0  0
  193.3014  217.0674  255.4359 C   0  0  1  0  0  0
  192.4402  216.1272  256.2940 C   0  0  0  0  0  0
  191.4975  216.7103  257.0405 N   0  0  0  0  0  0
  190.7721  216.0369  258.1109 C   0  0  1  0  0  0
  191.2686  216.6659  259.4300 C   0  0  0  0  0  0
  191.5282  215.9101  260.5044 N   0  0  0  0  0  0
  191.3437  214.4732  260.6625 C   0  0  1  0  0  0
  192.7084  213.7749  260.6690 C   0  0  0  0  0  0
  192.9432  212.9099  259.6736 N   0  0  0  0  0  0
  199.2924  216.7729  248.9644 C   0  0  0  0  0  0
  198.6577  218.3769  250.5993 O   0  0  0  0  0  0
  200.0329  216.2065  253.7621 C   0  0  0  0  0  0
  199.6934  216.7747  255.4582 S   0  0  0  0  0  0
  197.5050  214.9345  253.8641 O   0  0  0  0  0  0
  194.5380  215.6024  251.0098 C   0  0  0  0  0  0
  194.3738  217.8819  252.9226 O   0  0  0  0  0  0
  194.3153  217.9424  256.2449 C   0  0  0  0  0  0
  192.6673  214.9135  256.2888 O   0  0  0  0  0  0
  189.2518  216.2226  257.8909 C   0  0  0  0  0  0
  194.1549  212.0912  259.5775 C   0  0  1  0  0  0
  193.9508  210.6531  260.0859 C   0  0  0  0  0  0
  192.6921  210.1950  260.1757 N   0  0  0  0  0  0
  192.3188  208.8873  260.7369 C   0  0  1  0  0  0
  192.2974  208.8966  262.2837 C   0  0  0  0  0  0
  191.4261  217.8849  259.4558 O   0  0  0  0  0  0
  193.5063  214.0375  261.5663 O   0  0  0  0  0  0
  194.6354  212.0813  258.1170 C   0  0  0  0  0  0
  194.9447  209.9842  260.3645 O   0  0  0  0  0  0
  192.5003  207.7421  262.9024 N   0  0  0  0  0  0
  192.0330  209.9134  262.9170 O   0  0  0  0  0  0
  190.9424  208.4469  260.1799 C   0  0  0  0  0  0
  190.9237  208.2033  258.6582 C   0  0  0  0  0  0
  190.5630  214.2300  261.9663 C   0  0  0  0  0  0
  189.8851  212.8558  261.9791 C   0  0  0  0  0  0
  188.9699  212.6588  263.1923 C   0  0  0  0  0  0
  188.0465  211.5479  262.9481 N   0  0  0  0  0  0
  187.1061  211.0589  263.7686 C   0  0  0  0  0  0
  186.9072  211.5258  265.0111 N   0  0  0  0  0  0
  186.3438  210.0716  263.3007 N   0  3  0  0  0  0
  189.5427  207.7410  258.1450 C   0  0  0  0  0  0
  189.4762  207.6602  256.6748 N   0  0  0  0  0  0
  189.3965  208.6808  255.7980 C   0  0  0  0  0  0
  189.3852  208.4171  254.4842 N   0  3  0  0  0  0
  189.3269  209.9593  256.2030 N   0  0  0  0  0  0
  188.3530  215.6054  258.9824 C   0  0  0  0  0  0
  186.8490  215.7630  258.6879 C   0  0  0  0  0  0
  186.0257  215.4572  259.8693 N   0  0  0  0  0  0
  185.7365  216.2920  260.8883 C   0  0  0  0  0  0
  186.1639  217.5647  260.9175 N   0  0  0  0  0  0
  185.0066  215.8315  261.9099 N   0  3  0  0  0  0
  195.1832  217.1673  257.2384 C   0  0  0  0  0  0
  196.2799  216.4243  256.7931 C   0  0  0  0  0  0
  196.9371  215.5486  257.6556 C   0  0  0  0  0  0
  196.4621  215.3691  258.9566 C   0  0  0  0  0  0
  195.3216  216.0529  259.3815 C   0  0  0  0  0  0
  194.6960  216.9502  258.5274 C   0  0  0  0  0  0
  197.1064  214.4188  259.8060 N   0  0  0  0  0  0
  197.3404  214.4900  261.1217 C   0  0  0  0  0  0
  197.0810  215.5383  261.8882 N   0  0  0  0  0  0
  197.8734  213.4424  261.7156 N   0  3  0  0  0  0
  199.3952  215.3659  251.1152 H   0  0  0  0  0  0
  198.6919  217.6421  252.9370 H   0  0  0  0  0  0
  196.6660  217.0129  251.6600 H   0  0  0  0  0  0
  195.1861  214.7172  252.8622 H   0  0  0  0  0  0
  194.0191  215.2668  254.6879 H   0  0  0  0  0  0
  192.6155  217.7336  254.9076 H   0  0  0  0  0  0
  191.4393  217.7183  257.0654 H   0  0  0  0  0  0
  191.0023  214.9759  258.0614 H   0  0  0  0  0  0
  191.9335  216.3673  261.3087 H   0  0  0  0  0  0
  190.7320  214.0632  259.8648 H   0  0  0  0  0  0
  192.2829  212.8236  258.9167 H   0  0  0  0  0  0
  199.7870  215.8051  248.9312 H   0  0  0  0  0  0
  199.9226  217.4943  248.4451 H   0  0  0  0  0  0
  198.3486  216.6903  248.4272 H   0  0  0  0  0  0
  200.1976  215.1285  253.7901 H   0  0  0  0  0  0
  200.9714  216.6668  253.4536 H   0  0  0  0  0  0
  200.0984  218.0478  255.3222 H   0  0  0  0  0  0
  193.5159  215.2299  251.0881 H   0  0  0  0  0  0
  194.4951  216.5698  250.5073 H   0  0  0  0  0  0
  195.0875  214.9138  250.3674 H   0  0  0  0  0  0
  194.9764  218.4641  255.5503 H   0  0  0  0  0  0
  193.7852  218.7332  256.7783 H   0  0  0  0  0  0
  189.0318  217.2900  257.8290 H   0  0  0  0  0  0
  188.9787  215.8013  256.9222 H   0  0  0  0  0  0
  194.9464  212.5263  260.1904 H   0  0  0  0  0  0
  191.9381  210.8390  260.0149 H   0  0  0  0  0  0
  193.0624  208.1549  260.4215 H   0  0  0  0  0  0
  195.5711  211.5281  258.0198 H   0  0  0  0  0  0
  193.9095  211.6130  257.4515 H   0  0  0  0  0  0
  194.8182  213.0933  257.7521 H   0  0  0  0  0  0
  192.6602  206.8858  262.3877 H   0  0  0  0  0  0
  192.4439  207.7341  263.9056 H   0  0  0  0  0  0
  190.6425  207.5206  260.6751 H   0  0  0  0  0  0
  190.1837  209.1815  260.4561 H   0  0  0  0  0  0
  191.3144  209.0461  258.0872 H   0  0  0  0  0  0
  191.6275  207.3860  258.4882 H   0  0  0  0  0  0
  191.2025  214.3613  262.8428 H   0  0  0  0  0  0
  189.7775  214.9823  262.0531 H   0  0  0  0  0  0
  189.3588  212.6529  261.0443 H   0  0  0  0  0  0
  190.6855  212.1154  262.0459 H   0  0  0  0  0  0
  189.5830  212.3301  264.0330 H   0  0  0  0  0  0
  188.4638  213.5742  263.5011 H   0  0  0  0  0  0
  188.0624  211.1800  262.0005 H   0  0  0  0  0  0
  186.1415  211.1849  265.5728 H   0  0  0  0  0  0
  187.4819  212.2756  265.3667 H   0  0  0  0  0  0
  185.6451  209.6151  263.8769 H   0  0  0  0  0  0
  189.4028  206.7032  258.4520 H   0  0  0  0  0  0
  188.7093  208.2881  258.5838 H   0  0  0  0  0  0
  189.4305  206.7154  256.3122 H   0  0  0  0  0  0
  189.3550  209.1657  253.8075 H   0  0  0  0  0  0
  189.2771  210.7174  255.5387 H   0  0  0  0  0  0
  189.2825  210.1700  257.1913 H   0  0  0  0  0  0
  188.5695  214.5358  258.9796 H   0  0  0  0  0  0
  188.6004  215.9591  259.9846 H   0  0  0  0  0  0
  186.5934  216.7096  258.2105 H   0  0  0  0  0  0
  186.5603  214.9856  257.9789 H   0  0  0  0  0  0
  185.6373  214.5175  259.9110 H   0  0  0  0  0  0
  185.9337  218.1742  261.6883 H   0  0  0  0  0  0
  186.7159  217.9291  260.1553 H   0  0  0  0  0  0
  184.7481  216.4202  262.6873 H   0  0  0  0  0  0
  196.6305  216.5213  255.7762 H   0  0  0  0  0  0
  197.7985  215.0062  257.2868 H   0  0  0  0  0  0
  194.8926  215.8873  260.3598 H   0  0  0  0  0  0
  193.8206  217.4764  258.8696 H   0  0  0  0  0  0
  197.4967  213.6070  259.3532 H   0  0  0  0  0  0
  197.4153  215.5817  262.8456 H   0  0  0  0  0  0
  196.6571  216.3549  261.4764 H   0  0  0  0  0  0
  197.7666  213.3399  262.7186 H   0  0  0  0  0  0
  189.4106  207.4705  254.1239 H   0  0  0  0  0  0
  186.4284  209.7930  262.3259 H   0  0  0  0  0  0
  184.7042  214.8625  261.8951 H   0  0  0  0  0  0
  198.4389  212.7933  261.1922 H   0  0  0  0  0  0
  1  2  1  0  0  0
  1 18  1  0  0  0
  1 19  2  0  0  0
  2  3  1  0  0  0
  2 69  1  0  0  0
  3  4  1  0  0  0
  3 20  1  0  0  0
  3 70  1  0  0  0
  4  5  1  0  0  0
  4 22  2  0  0  0
  5  6  1  0  0  0
  5 71  1  0  0  0
  6  7  1  0  0  0
  6 23  1  0  0  0
  6 72  1  0  0  0
  7  8  1  0  0  0
  7 24  2  0  0  0
  8  9  1  0  0  0
  8 73  1  0  0  0
  9 10  1  0  0  0
  9 25  1  0  0  0
  9 74  1  0  0  0
 10 11  1  0  0  0
 10 26  2  0  0  0
 11 12  1  0  0  0
 11 75  1  0  0  0
 12 13  1  0  0  0
 12 27  1  0  0  0
 12 76  1  0  0  0
 13 14  1  0  0  0
 13 33  2  0  0  0
 14 15  1  0  0  0
 14 77  1  0  0  0
 15 16  1  0  0  0
 15 41  1  0  0  0
 15 78  1  0  0  0
 16 17  1  0  0  0
 16 34  2  0  0  0
 17 28  1  0  0  0
 17 79  1  0  0  0
 18 80  1  0  0  0
 18 81  1  0  0  0
 18 82  1  0  0  0
 20 21  1  0  0  0
 20 83  1  0  0  0
 20 84  1  0  0  0
 21 85  1  0  0  0
 23 86  1  0  0  0
 23 87  1  0  0  0
 23 88  1  0  0  0
 25 59  1  0  0  0
 25 89  1  0  0  0
 25 90  1  0  0  0
 27 53  1  0  0  0
 27 91  1  0  0  0
 27 92  1  0  0  0
 28 29  1  0  0  0
 28 35  1  0  0  0
 28 93  1  0  0  0
 29 30  1  0  0  0
 29 36  2  0  0  0
 30 31  1  0  0  0
 30 94  1  0  0  0
 31 32  1  0  0  0
 31 39  1  0  0  0
 31 95  1  0  0  0
 32 37  1  0  0  0
 32 38  2  0  0  0
 35 96  1  0  0  0
 35 97  1  0  0  0
 35 98  1  0  0  0
 37 99  1  0  0  0
 37100  1  0  0  0
 39 40  1  0  0  0
 39101  1  0  0  0
 39102  1  0  0  0
 40 48  1  0  0  0
 40103  1  0  0  0
 40104  1  0  0  0
 41 42  1  0  0  0
 41105  1  0  0  0
 41106  1  0  0  0
 42 43  1  0  0  0
 42107  1  0  0  0
 42108  1  0  0  0
 43 44  1  0  0  0
 43109  1  0  0  0
 43110  1  0  0  0
 44 45  1  0  0  0
 44111  1  0  0  0
 45 46  1  0  0  0
 45 47  2  0  0  0
 46112  1  0  0  0
 46113  1  0  0  0
 47114  1  0  0  0
 47138  1  0  0  0
 48 49  1  0  0  0
 48115  1  0  0  0
 48116  1  0  0  0
 49 50  1  0  0  0
 49117  1  0  0  0
 50 51  2  0  0  0
 50 52  1  0  0  0
 51118  1  0  0  0
 51137  1  0  0  0
 52119  1  0  0  0
 52120  1  0  0  0
 53 54  1  0  0  0
 53121  1  0  0  0
 53122  1  0  0  0
 54 55  1  0  0  0
 54123  1  0  0  0
 54124  1  0  0  0
 55 56  1  0  0  0
 55125  1  0  0  0
 56 57  1  0  0  0
 56 58  2  0  0  0
 57126  1  0  0  0
 57127  1  0  0  0
 58128  1  0  0  0
 58139  1  0  0  0
 59 60  2  0  0  0
 59 64  1  0  0  0
 60 61  1  0  0  0
 60129  1  0  0  0
 61 62  2  0  0  0
 61130  1  0  0  0
 62 63  1  0  0  0
 62 65  1  0  0  0
 63 64  2  0  0  0
 63131  1  0  0  0
 64132  1  0  0  0
 65 66  1  0  0  0
 65133  1  0  0  0
 66 67  1  0  0  0
 66 68  2  0  0  0
 67134  1  0  0  0
 67135  1  0  0  0
 68136  1  0  0  0
 68140  1  0  0  0
M  CHG  4  47   1  51   1  58   1  68   1
M  END
> <s_m_entry_id>
150

> <s_m_entry_name>
STS005-ligand-20230714.17

> <s_m_Source_Path>
D:\xubinbin\STS005

> <s_m_Source_File>
prime_mmgbsa_all-20230714-out.maegz

> <i_m_Source_File_Index>
150

> <s_psp_Prime_MMGBSA_Input_Structure_Hash>
d8f22261a1410ffc706b239a9971d61053a7105c3e671dc7b9f661ab

> <i_psp_number_heavy_atoms>
68

> <b_psp_distorted_structure>
1

> <i_psp_model_num>
0

> <r_psp_Prime_Coulomb>
-43147.1979402825

> <r_psp_Prime_Covalent>
7582.69885857865

> <r_psp_Prime_vdW>
-6873.18947598873

> <r_psp_Prime_Lipo>
-3890.09891638631

> <r_psp_Prime_Solv_GB>
-13140.5592019263

> <r_psp_Prime_Energy>
-60554.1118836715

> <s_psp_Prime_Energy_Force_Field>
S-OPLS

> <s_psp_Prime_Energy_Solvent_Model>
VSGB2.1

> <r_psp_Prime_Bond_Covalent>
954.943218971653

> <r_psp_Prime_Bond_SGB>
111469.463034336

> <r_psp_Prime_Angle_Covalent>
3206.48419484695

> <r_psp_Prime_Angle_SGB>
-44107.8231679449

> <r_psp_Prime_Torsion_Covalent>
3421.27144476005

> <r_psp_Prime_NB14_LJ>
7958.92390160843

> <r_psp_Prime_NB14_Lipo>
0

> <r_psp_Prime_NB14_Elec>
48377.3254114378

> <r_psp_Prime_NB14_SGB>
-41259.4942771933

> <r_psp_Prime_NBShort_LJ>
-14067.1875652362

> <r_psp_Prime_NBShort_Lipo>
-3890.09891638631

> <r_psp_Prime_NBShort_Elec>
-95934.8129407822

> <r_psp_Prime_NBShort_SGB>
45252.6034002361

> <r_psp_Prime_NBLong_LJ>
-764.925812361005

> <r_psp_Prime_NBLong_Lipo>
0

> <r_psp_Prime_NBLong_Elec>
4410.28958906194

> <r_psp_Prime_NBLong_SGB>
-4224.20209452202

> <r_psp_Prime_Self_SGB>
-80271.1060968386

> <r_psp_Prime_Hbond>
-777.651677159976

> <r_psp_Prime_Packing>
-136.054571885246

> <r_psp_Prime_SelfCont>
-172.058958621051

> <i_lp_mmshare_version>
54117

> <s_epik_input>
W0NIM11DKD1PKVtOSF1bQ0BIXShbQ0gyXVtTSF0pQyg9TylbTkhdW0NASF0oW0NIM10pQyg9TylbTkhdW0NASF0oW0NIMl1jMVtjSF1bY0hdYyhbY0hdW2NIXTEpW05IXS9DKFtOSDJdKT1OL1tIXSlDKD1PKVtOSF1bQ0BIXShbQ0gyXVtDSDJdW0NIMl1bTkhdL0MoW05IMl0pPU4vW0hdKUMoPU8pW05IXVtDQEhdKFtDSDJdW0NIMl1bQ0gyXVtOSF0vQyhbTkgyXSk9Ti9bSF0pQyg9TylbTkhdW0NASF0oW0NIM10pQyg9TylbTkhdW0NAQEhdKEMoPU8pW05IMl0pW0NIMl1bQ0gyXVtDSDJdW05IXS9DKD1OL1tIXSlbTkgyXQ==

> <s_epik_cmdline>
J2VwaWtfcHl0aG9uJywgJy1waCcsICc3LjAnLCAnLXRuJywgJzgnLCAnLW1hJywgJzUwMCcsICctaW1hZScsICc8aW5maWxlLm1hZT4nLCAnLW9tYWUnLCAnPG91dGZpbGUubWFlPic=

> <r_epik_Ionization_Penalty>
  0.0087

> <r_epik_Ionization_Penalty_Charging>
  0.0001

> <r_epik_Ionization_Penalty_Neutral>
  0.0086

> <r_epik_State_Penalty>
  0.0065

> <r_epik_Charging_Adjusted_Penalty>
0.00656881056214941

> <i_epik_Tot_Q>
4

> <i_epik_Tot_abs_Q>
4

> <s_epik_Chemistry_Notes>
This compound has an imine and may undergo hydrolysis.

> <i_f3d_flags>
0

> <s_lp_Force_Field>
S-OPLS

> <r_lp_Energy>
28.269192

> <b_lp_Chiralities_Consistent>
1

> <s_lp_Variant>
028-1

> <s_i_glide_gridfile>
glide-grid_D-site

> <i_i_glide_lignum>
32

> <i_i_glide_rotatable_bonds>
42

> <r_i_docking_score>
-3.38488896332449

> <r_i_glide_ligand_efficiency>
-0.049777778872419

> <r_i_glide_ligand_efficiency_sa>
-0.203175724810955

> <r_i_glide_ligand_efficiency_ln>
-0.648507321862509

> <r_glide_XP_GScore>
-3.39138896332449

> <r_i_glide_gscore>
-3.39138896332449

> <r_i_glide_evdw>
-32.986198425293

> <r_i_glide_ecoul>
-34.1190414428711

> <r_i_glide_energy>
-67.1052398681641

> <r_i_glide_einternal>
21.3537330627441

> <r_i_glide_emodel>
16.8530349731445

> <r_glide_XP_HBond>
-2.76097240182642

> <i_i_glide_confnum>
1

> <i_i_glide_posenum>
1

> <r_i_glide_eff_state_penalty>
0.0065

> <i_glide_XP_PoseRank>
1

> <s_psp_MMGBSA_moved_residues>


> <r_psp_MMGBSA_dG_Bind>
-68.6927103089256

> <r_psp_MMGBSA_dG_Bind_Coulomb>
-593.623269939846

> <r_psp_MMGBSA_dG_Bind_Covalent>
-1.25314265671022

> <r_psp_MMGBSA_dG_Bind_Hbond>
-9.82894138507879

> <r_psp_MMGBSA_dG_Bind_Lipo>
-5.90815216157807

> <r_psp_MMGBSA_dG_Bind_Packing>
-0.0454403605353662

> <r_psp_MMGBSA_dG_Bind_SelfCont>
0

> <r_psp_MMGBSA_dG_Bind_Solv_GB>
596.353873560822

> <r_psp_MMGBSA_dG_Bind_vdW>
-54.3876373660059

> <r_psp_Lig_Strain_Energy>
7.97291656854009

> <r_psp_Lig_Strain_Coulomb>
15.7274947282577

> <r_psp_Lig_Strain_Covalent>
-1.25314265671453

> <r_psp_Lig_Strain_Hbond>
0

> <r_psp_Lig_Strain_Lipo>
-0.612428710020799

> <r_psp_Lig_Strain_Packing>
0

> <r_psp_Lig_Strain_SelfCont>
0

> <r_psp_Lig_Strain_Solv_GB>
-11.591695598177

> <r_psp_Lig_Strain_vdW>
5.70268880519502

> <r_psp_Ligand_Energy>
-278.546305204588

> <r_psp_Ligand_Coulomb>
-83.2830310976799

> <r_psp_Ligand_Covalent>
48.1998252375864

> <r_psp_Ligand_Hbond>
0

> <r_psp_Ligand_Lipo>
-7.14200216292791

> <r_psp_Ligand_Packing>
0

> <r_psp_Ligand_SelfCont>
0

> <r_psp_Ligand_Solv_GB>
-240.568858523627

> <r_psp_Ligand_vdW>
4.24776134205968

> <r_psp_Complex_Energy>
-60554.1118836715

> <r_psp_Complex_Coulomb>
-43147.1979402825

> <r_psp_Complex_Covalent>
7582.69885857865

> <r_psp_Complex_Hbond>
-777.651677159976

> <r_psp_Complex_Lipo>
-3890.09891638631

> <r_psp_Complex_Packing>
-136.054571885246

> <r_psp_Complex_SelfCont>
-172.058958621051

> <r_psp_Complex_Solv_GB>
-13140.5592019263

> <r_psp_Complex_vdW>
-6873.18947598873

> <r_psp_Receptor_Energy>
-60206.872868158

> <r_psp_Receptor_Coulomb>
-42470.291639245

> <r_psp_Receptor_Covalent>
7535.75217599777

> <r_psp_Receptor_Hbond>
-767.822735774897

> <r_psp_Receptor_Lipo>
-3877.04876206181

> <r_psp_Receptor_Packing>
-136.00913152471

> <r_psp_Receptor_SelfCont>
-172.058958621051

> <r_psp_Receptor_Solv_GB>
-13496.3442169635

> <r_psp_Receptor_vdW>
-6823.04959996478

> <r_psp_MMGBSA_dG_Bind(NS)>
-76.6656268774677

> <r_psp_MMGBSA_dG_Bind(NS)_Coulomb>
-609.350764668103

> <r_psp_MMGBSA_dG_Bind(NS)_Covalent>
3.63797880709171e-12

> <r_psp_MMGBSA_dG_Bind(NS)_Hbond>
-9.82894138507879

> <r_psp_MMGBSA_dG_Bind(NS)_Lipo>
-5.29572345155702

> <r_psp_MMGBSA_dG_Bind(NS)_Packing>
-0.0454403605353662

> <r_psp_MMGBSA_dG_Bind(NS)_SelfCont>
0

> <r_psp_MMGBSA_dG_Bind(NS)_Solv_GB>
607.945569158999

> <r_psp_MMGBSA_dG_Bind(NS)_vdW>
-60.090326171201

> <r_psp_Rec_Strain_Energy>
0

> <r_psp_Rec_Strain_Coulomb>
0

> <r_psp_Rec_Strain_Covalent>
0

> <r_psp_Rec_Strain_Hbond>
0

> <r_psp_Rec_Strain_Lipo>
0

> <r_psp_Rec_Strain_Packing>
0

> <r_psp_Rec_Strain_SelfCont>
0

> <r_psp_Rec_Strain_Solv_GB>
0

> <r_psp_Rec_Strain_vdW>
0

> <r_psp_Prime_MMGBSA_ligand_efficiency>
-1.01018691630773

> <r_psp_Prime_MMGBSA_ligand_efficiency_sa>
-1.51528037446159

> <r_psp_Prime_MMGBSA_ligand_efficiency_ln>
-13.1607642308496

> <Name>
28

> <s_m_subgroup_title>
prime_mmgbsa_all-20230714-out

> <s_m_subgroupid>
prime_mmgbsa_all-20230714-out

> <b_m_subgroup_collapsed>
0

$$$$
