STS005_prime_MMGBSA_result_28
                    3D
 Schrodinger Suite 2021-3.
140140  0  0  1  0            999 V2000
  196.7349  213.6395  260.6723 C   0  0  0  0  0  0
  195.4236  213.3943  260.5872 N   0  0  0  0  0  0
  194.6453  212.5076  261.4446 C   0  0  1  0  0  0
  193.1813  212.6608  260.9960 C   0  0  0  0  0  0
  192.2456  212.5160  261.9373 N   0  0  0  0  0  0
  190.8084  212.4399  261.7072 C   0  0  1  0  0  0
  190.3224  211.3877  262.7052 C   0  0  0  0  0  0
  189.6732  210.3351  262.1975 N   0  0  0  0  0  0
  189.4853  209.0232  262.8310 C   0  0  1  0  0  0
  189.1006  208.0364  261.7111 C   0  0  0  0  0  0
  189.8038  208.1312  260.5753 N   0  0  0  0  0  0
  189.6052  207.3795  259.3437 C   0  0  1  0  0  0
  190.4525  208.0818  258.2655 C   0  0  0  0  0  0
  190.3129  207.6947  256.9885 N   0  0  0  0  0  0
  191.0679  208.2872  255.8746 C   0  0  1  0  0  0
  191.2686  207.2328  254.7736 C   0  0  0  0  0  0
  192.2645  207.4182  253.8961 N   0  0  0  0  0  0
  197.2937  214.6826  259.7195 C   0  0  0  0  0  0
  197.4763  213.0638  261.4617 O   0  0  0  0  0  0
  195.1475  211.0381  261.4090 C   0  0  0  0  0  0
  194.1514  209.8736  262.3880 S   0  0  0  0  0  0
  192.9319  212.9044  259.8137 O   0  0  0  0  0  0
  190.1720  213.8274  261.9183 C   0  0  0  0  0  0
  190.6388  211.5191  263.8878 O   0  0  0  0  0  0
  190.7607  208.5619  263.6074 C   0  0  0  0  0  0
  190.8548  207.1130  264.0641 C   0  0  0  0  0  0
  188.1772  207.2464  261.8884 O   0  0  0  0  0  0
  190.0439  205.9231  259.5585 C   0  0  0  0  0  0
  192.6287  206.4545  252.8587 C   0  0  1  0  0  0
  193.0898  207.1632  251.5882 C   0  0  0  0  0  0
  193.1124  206.4260  250.4724 N   0  0  0  0  0  0
  193.6995  206.8480  249.2027 C   0  0  1  0  0  0
  194.0980  205.6026  248.3798 C   0  0  0  0  0  0
  191.2357  208.9721  258.6151 O   0  0  0  0  0  0
  190.5314  206.2498  254.7608 O   0  0  0  0  0  0
  193.7285  205.5213  253.3895 C   0  0  0  0  0  0
  193.4517  208.3364  251.6574 O   0  0  0  0  0  0
  195.3729  205.4634  248.0474 N   0  0  0  0  0  0
  193.2596  204.7851  248.0082 O   0  0  0  0  0  0
  192.7205  207.7748  248.4391 C   0  0  0  0  0  0
  193.3900  208.5933  247.3175 C   0  0  0  0  0  0
  190.3305  209.5613  255.3833 C   0  0  0  0  0  0
  191.0799  210.5322  254.4346 C   0  0  0  0  0  0
  192.3094  211.2643  255.0317 C   0  0  0  0  0  0
  193.5324  210.4405  255.0978 N   0  0  0  0  0  0
  194.4517  210.2745  254.1253 C   0  0  0  0  0  0
  194.3909  210.9456  252.9658 N   0  0  0  0  0  0
  195.4517  209.4027  254.3089 N   0  3  0  0  0  0
  192.3691  209.3333  246.4364 C   0  0  0  0  0  0
  193.0035  210.3562  245.5821 N   0  0  0  0  0  0
  192.9962  211.6913  245.7781 C   0  0  0  0  0  0
  193.6175  212.4833  244.8957 N   0  3  0  0  0  0
  192.3866  212.2574  246.8320 N   0  0  0  0  0  0
  188.6584  213.8748  261.6435 C   0  0  0  0  0  0
  186.6237  215.3106  261.7010 N   0  0  0  0  0  0
  188.0893  215.2912  261.8214 C   0  0  0  0  0  0
  185.7986  216.3445  261.9525 C   0  0  0  0  0  0
  184.4870  216.1806  261.7508 N   0  3  0  0  0  0
  186.2480  217.5306  262.3930 N   0  0  0  0  0  0
  192.1150  206.5081  264.0901 C   0  0  0  0  0  0
  192.2726  205.2118  264.5807 C   0  0  0  0  0  0
  191.1454  204.4981  265.0009 C   0  0  0  0  0  0
  189.8950  205.1087  265.0061 C   0  0  0  0  0  0
  189.7436  206.4110  264.5383 C   0  0  0  0  0  0
  193.5970  204.6772  264.6612 N   0  0  0  0  0  0
  194.1680  204.0564  265.7028 C   0  0  0  0  0  0
  193.5199  203.6443  266.7760 N   0  0  0  0  0  0
  195.4676  203.8401  265.7027 N   0  3  0  0  0  0
  194.8535  213.8489  259.8845 H   0  0  0  0  0  0
  194.7319  212.8843  262.4650 H   0  0  0  0  0  0
  192.5158  212.2756  262.8838 H   0  0  0  0  0  0
  190.6129  212.0961  260.6882 H   0  0  0  0  0  0
  189.2894  210.3948  261.2577 H   0  0  0  0  0  0
  188.6394  209.0917  263.5170 H   0  0  0  0  0  0
  190.5416  208.8172  260.4782 H   0  0  0  0  0  0
  188.5482  207.4255  259.0727 H   0  0  0  0  0  0
  189.7132  206.9148  256.7298 H   0  0  0  0  0  0
  192.0540  208.5377  256.2619 H   0  0  0  0  0  0
  192.7616  208.2952  253.8278 H   0  0  0  0  0  0
  197.0431  214.4418  258.6872 H   0  0  0  0  0  0
  198.3782  214.7245  259.8039 H   0  0  0  0  0  0
  196.9004  215.6688  259.9622 H   0  0  0  0  0  0
  195.1848  210.6829  260.3788 H   0  0  0  0  0  0
  196.1599  210.9804  261.8039 H   0  0  0  0  0  0
  193.1613  209.7553  261.4955 H   0  0  0  0  0  0
  190.3663  214.1626  262.9393 H   0  0  0  0  0  0
  190.6688  214.5454  261.2639 H   0  0  0  0  0  0
  191.6208  208.7570  262.9692 H   0  0  0  0  0  0
  190.8994  209.1635  264.5054 H   0  0  0  0  0  0
  189.5902  205.2864  258.8109 H   0  0  0  0  0  0
  191.1246  205.8129  259.4834 H   0  0  0  0  0  0
  189.7344  205.5271  260.5267 H   0  0  0  0  0  0
  191.7548  205.8810  252.5833 H   0  0  0  0  0  0
  192.7680  205.4639  250.4906 H   0  0  0  0  0  0
  194.5977  207.4191  249.4445 H   0  0  0  0  0  0
  193.9632  204.7374  252.6681 H   0  0  0  0  0  0
  194.6520  206.0655  253.5932 H   0  0  0  0  0  0
  193.4133  205.0331  254.3083 H   0  0  0  0  0  0
  196.0645  206.1261  248.3529 H   0  0  0  0  0  0
  195.6258  204.6699  247.4830 H   0  0  0  0  0  0
  191.8939  207.1818  248.0423 H   0  0  0  0  0  0
  192.2672  208.4787  249.1390 H   0  0  0  0  0  0
  194.1633  209.2607  247.7035 H   0  0  0  0  0  0
  193.9061  207.8767  246.6763 H   0  0  0  0  0  0
  189.4021  209.2531  254.8977 H   0  0  0  0  0  0
  190.0156  210.1452  256.2496 H   0  0  0  0  0  0
  191.3949  209.9559  253.5632 H   0  0  0  0  0  0
  190.3890  211.2715  254.0263 H   0  0  0  0  0  0
  192.4709  212.2418  254.5761 H   0  0  0  0  0  0
  192.0930  211.4731  256.0805 H   0  0  0  0  0  0
  193.6572  209.9309  255.9618 H   0  0  0  0  0  0
  195.0394  210.7108  252.2187 H   0  0  0  0  0  0
  193.6369  211.5890  252.7789 H   0  0  0  0  0  0
  196.0696  209.1716  253.5334 H   0  0  0  0  0  0
  191.9822  208.6154  245.7121 H   0  0  0  0  0  0
  191.4951  209.6780  246.9900 H   0  0  0  0  0  0
  193.5280  210.0016  244.7895 H   0  0  0  0  0  0
  193.6231  213.4862  245.0108 H   0  0  0  0  0  0
  192.3914  213.2583  246.9624 H   0  0  0  0  0  0
  191.9278  211.6792  247.5211 H   0  0  0  0  0  0
  188.5282  213.5838  260.5988 H   0  0  0  0  0  0
  188.0952  213.1428  262.2264 H   0  0  0  0  0  0
  186.1985  214.4328  261.4093 H   0  0  0  0  0  0
  188.4490  215.7637  262.7361 H   0  0  0  0  0  0
  188.4374  215.9074  260.9915 H   0  0  0  0  0  0
  183.8334  216.9341  261.9054 H   0  0  0  0  0  0
  185.6120  218.2939  262.5718 H   0  0  0  0  0  0
  187.2352  217.6744  262.5468 H   0  0  0  0  0  0
  192.9769  207.0684  263.7535 H   0  0  0  0  0  0
  191.2208  203.4763  265.3428 H   0  0  0  0  0  0
  189.0451  204.5732  265.3903 H   0  0  0  0  0  0
  188.7619  206.8627  264.5448 H   0  0  0  0  0  0
  194.1970  204.8684  263.8730 H   0  0  0  0  0  0
  193.9985  203.4261  267.6413 H   0  0  0  0  0  0
  192.5122  203.6658  266.7672 H   0  0  0  0  0  0
  195.8549  203.1722  266.3521 H   0  0  0  0  0  0
  194.1326  212.0842  244.1178 H   0  0  0  0  0  0
  195.5658  208.9041  255.1791 H   0  0  0  0  0  0
  184.1402  215.3285  261.3231 H   0  0  0  0  0  0
  196.0826  204.4252  265.1568 H   0  0  0  0  0  0
  1  2  1  0  0  0
  1 18  1  0  0  0
  1 19  2  0  0  0
  2  3  1  0  0  0
  2 69  1  0  0  0
  3  4  1  0  0  0
  3 20  1  0  0  0
  3 70  1  0  0  0
  4  5  1  0  0  0
  4 22  2  0  0  0
  5  6  1  0  0  0
  5 71  1  0  0  0
  6  7  1  0  0  0
  6 23  1  0  0  0
  6 72  1  0  0  0
  7  8  1  0  0  0
  7 24  2  0  0  0
  8  9  1  0  0  0
  8 73  1  0  0  0
  9 10  1  0  0  0
  9 25  1  0  0  0
  9 74  1  0  0  0
 10 11  1  0  0  0
 10 27  2  0  0  0
 11 12  1  0  0  0
 11 75  1  0  0  0
 12 13  1  0  0  0
 12 28  1  0  0  0
 12 76  1  0  0  0
 13 14  1  0  0  0
 13 34  2  0  0  0
 14 15  1  0  0  0
 14 77  1  0  0  0
 15 16  1  0  0  0
 15 42  1  0  0  0
 15 78  1  0  0  0
 16 17  1  0  0  0
 16 35  2  0  0  0
 17 29  1  0  0  0
 17 79  1  0  0  0
 18 80  1  0  0  0
 18 81  1  0  0  0
 18 82  1  0  0  0
 20 21  1  0  0  0
 20 83  1  0  0  0
 20 84  1  0  0  0
 21 85  1  0  0  0
 23 54  1  0  0  0
 23 86  1  0  0  0
 23 87  1  0  0  0
 25 26  1  0  0  0
 25 88  1  0  0  0
 25 89  1  0  0  0
 26 60  2  0  0  0
 26 64  1  0  0  0
 28 90  1  0  0  0
 28 91  1  0  0  0
 28 92  1  0  0  0
 29 30  1  0  0  0
 29 36  1  0  0  0
 29 93  1  0  0  0
 30 31  1  0  0  0
 30 37  2  0  0  0
 31 32  1  0  0  0
 31 94  1  0  0  0
 32 33  1  0  0  0
 32 40  1  0  0  0
 32 95  1  0  0  0
 33 38  1  0  0  0
 33 39  2  0  0  0
 36 96  1  0  0  0
 36 97  1  0  0  0
 36 98  1  0  0  0
 38 99  1  0  0  0
 38100  1  0  0  0
 40 41  1  0  0  0
 40101  1  0  0  0
 40102  1  0  0  0
 41 49  1  0  0  0
 41103  1  0  0  0
 41104  1  0  0  0
 42 43  1  0  0  0
 42105  1  0  0  0
 42106  1  0  0  0
 43 44  1  0  0  0
 43107  1  0  0  0
 43108  1  0  0  0
 44 45  1  0  0  0
 44109  1  0  0  0
 44110  1  0  0  0
 45 46  1  0  0  0
 45111  1  0  0  0
 46 47  1  0  0  0
 46 48  2  0  0  0
 47112  1  0  0  0
 47113  1  0  0  0
 48114  1  0  0  0
 48138  1  0  0  0
 49 50  1  0  0  0
 49115  1  0  0  0
 49116  1  0  0  0
 50 51  1  0  0  0
 50117  1  0  0  0
 51 52  2  0  0  0
 51 53  1  0  0  0
 52118  1  0  0  0
 52137  1  0  0  0
 53119  1  0  0  0
 53120  1  0  0  0
 54 56  1  0  0  0
 54121  1  0  0  0
 54122  1  0  0  0
 55 56  1  0  0  0
 55 57  1  0  0  0
 55123  1  0  0  0
 56124  1  0  0  0
 56125  1  0  0  0
 57 58  2  0  0  0
 57 59  1  0  0  0
 58126  1  0  0  0
 58139  1  0  0  0
 59127  1  0  0  0
 59128  1  0  0  0
 60 61  1  0  0  0
 60129  1  0  0  0
 61 62  2  0  0  0
 61 65  1  0  0  0
 62 63  1  0  0  0
 62130  1  0  0  0
 63 64  2  0  0  0
 63131  1  0  0  0
 64132  1  0  0  0
 65 66  1  0  0  0
 65133  1  0  0  0
 66 67  1  0  0  0
 66 68  2  0  0  0
 67134  1  0  0  0
 67135  1  0  0  0
 68136  1  0  0  0
 68140  1  0  0  0
M  CHG  4  48   1  52   1  58   1  68   1
M  END
> <s_m_entry_id>
8

> <s_m_entry_name>
STS005-ligand-20230714.27

> <s_m_Source_Path>
D:\xubinbin\STS005

> <s_m_Source_File>
prime_mmgbsa_all-20230714-out.maegz

> <i_m_Source_File_Index>
8

> <s_psp_Prime_MMGBSA_Input_Structure_Hash>
735dd4f8a220cbc381ba1518bc309b0d4386e5c8052156bccc2fb60d

> <i_psp_number_heavy_atoms>
68

> <b_psp_distorted_structure>
1

> <i_psp_model_num>
0

> <r_psp_Prime_Coulomb>
-43282.6512400183

> <r_psp_Prime_Covalent>
7576.83457555006

> <r_psp_Prime_vdW>
-6881.90257155384

> <r_psp_Prime_Lipo>
-3892.83015177407

> <r_psp_Prime_Solv_GB>
-12990.463259297

> <r_psp_Prime_Energy>
-60556.6889227007

> <s_psp_Prime_Energy_Force_Field>
S-OPLS

> <s_psp_Prime_Energy_Solvent_Model>
VSGB2.1

> <r_psp_Prime_Bond_Covalent>
955.377448604006

> <r_psp_Prime_Bond_SGB>
111376.383740857

> <r_psp_Prime_Angle_Covalent>
3208.35350423384

> <r_psp_Prime_Angle_SGB>
-44075.8963357822

> <r_psp_Prime_Torsion_Covalent>
3413.10362271222

> <r_psp_Prime_NB14_LJ>
7961.4452744362

> <r_psp_Prime_NB14_Lipo>
0

> <r_psp_Prime_NB14_Elec>
48378.1173676421

> <r_psp_Prime_NB14_SGB>
-41188.076381549

> <r_psp_Prime_NBShort_LJ>
-14077.4429858922

> <r_psp_Prime_NBShort_Lipo>
-3892.83015177407

> <r_psp_Prime_NBShort_Elec>
-95978.8059634669

> <r_psp_Prime_NBShort_SGB>
45225.3044610587

> <r_psp_Prime_NBLong_LJ>
-765.904860097838

> <r_psp_Prime_NBLong_Lipo>
0

> <r_psp_Prime_NBLong_Elec>
4318.03735580656

> <r_psp_Prime_NBLong_SGB>
-4130.6610174622

> <r_psp_Prime_Self_SGB>
-80197.5177264196

> <r_psp_Prime_Hbond>
-775.720439030642

> <r_psp_Prime_Packing>
-137.896877955864

> <r_psp_Prime_SelfCont>
-172.058958621051

> <i_lp_mmshare_version>
54117

> <s_epik_input>
W0hdXE49QyhbTkgyXSlcW05IXVtDSDJdW0NIMl1bQ0gyXVtDQEBIXShbTkhdQyg9TylbQ0BASF0oW0NIMl1bU0hdKVtOSF1DKD1PKVtDSDNdKUMoPU8pW05IXVtDQEhdKFtDSDJdYzFbY0hdYyhbY0hdW2NIXVtjSF0xKVtOSF0vQyhbTkgyXSk9Ti9bSF0pQyg9TylbTkhdW0NASF0oW0NIM10pQyg9TylbTkhdW0NASF0oW0NIMl1bQ0gyXVtDSDJdW05IXS9DKFtOSDJdKT1OL1tIXSlDKD1PKVtOSF1bQ0BIXShbQ0gzXSlDKD1PKVtOSF1bQ0BASF0oQyg9TylbTkgyXSlbQ0gyXVtDSDJdW0NIMl1bTkhdL0MoPU4vW0hdKVtOSDJd

> <s_epik_cmdline>
J2VwaWtfcHl0aG9uJywgJy1waCcsICc3LjAnLCAnLXRuJywgJzgnLCAnLW1hJywgJzUwMCcsICctaW1hZScsICc8aW5maWxlLm1hZT4nLCAnLW9tYWUnLCAnPG91dGZpbGUubWFlPic=

> <r_epik_Ionization_Penalty>
  0.0087

> <r_epik_Ionization_Penalty_Charging>
  0.0001

> <r_epik_Ionization_Penalty_Neutral>
  0.0087

> <r_epik_State_Penalty>
  0.0065

> <r_epik_Charging_Adjusted_Penalty>
0.0066118079640703

> <i_epik_Tot_Q>
4

> <i_epik_Tot_abs_Q>
4

> <s_epik_Chemistry_Notes>
This compound has an imine and may undergo hydrolysis.

> <i_f3d_flags>
0

> <s_lp_Force_Field>
S-OPLS

> <r_lp_Energy>
22.51245

> <b_lp_Chiralities_Consistent>
1

> <s_lp_Variant>
043-1

> <s_i_glide_gridfile>
glide-grid_D-site

> <i_i_glide_lignum>
52

> <i_i_glide_rotatable_bonds>
42

> <r_i_docking_score>
-8.58732997844612

> <r_i_glide_ligand_efficiency>
-0.126284264388913

> <r_i_glide_ligand_efficiency_sa>
-0.515448811309908

> <r_i_glide_ligand_efficiency_ln>
-1.64523753263745

> <r_glide_XP_GScore>
-8.59382997844612

> <r_i_glide_gscore>
-8.59382997844612

> <r_i_glide_evdw>
-60.8822364807129

> <r_i_glide_ecoul>
-12.8506507873535

> <r_i_glide_energy>
-73.7328872680664

> <r_i_glide_einternal>
27.3755016326904

> <r_i_glide_emodel>
-104.46753692627

> <r_glide_XP_HBond>
-2.945

> <i_i_glide_confnum>
1

> <i_i_glide_posenum>
2

> <r_i_glide_eff_state_penalty>
0.0065

> <i_glide_XP_PoseRank>
1

> <s_psp_MMGBSA_moved_residues>


> <r_psp_MMGBSA_dG_Bind>
-65.5215285429076

> <r_psp_MMGBSA_dG_Bind_Coulomb>
-709.418102679301

> <r_psp_MMGBSA_dG_Bind_Covalent>
1.17117264504577

> <r_psp_MMGBSA_dG_Bind_Hbond>
-7.89770325574455

> <r_psp_MMGBSA_dG_Bind_Lipo>
-9.34478655106068

> <r_psp_MMGBSA_dG_Bind_Packing>
-1.88774643115346

> <r_psp_MMGBSA_dG_Bind_SelfCont>
0

> <r_psp_MMGBSA_dG_Bind_Solv_GB>
729.057495763009

> <r_psp_MMGBSA_dG_Bind_vdW>
-67.201858033708

> <r_psp_Lig_Strain_Energy>
22.1177102288563

> <r_psp_Lig_Strain_Coulomb>
-5.86883103888708

> <r_psp_Lig_Strain_Covalent>
1.17117264504571

> <r_psp_Lig_Strain_Hbond>
0

> <r_psp_Lig_Strain_Lipo>
2.48671410083574

> <r_psp_Lig_Strain_Packing>
0

> <r_psp_Lig_Strain_SelfCont>
0

> <r_psp_Lig_Strain_Solv_GB>
10.3868780353386

> <r_psp_Lig_Strain_vdW>
13.9417764865234

> <r_psp_Ligand_Energy>
-284.294525999833

> <r_psp_Ligand_Coulomb>
-102.941498093981

> <r_psp_Ligand_Covalent>
39.911226907246

> <r_psp_Ligand_Hbond>
0

> <r_psp_Ligand_Lipo>
-6.43660316119951

> <r_psp_Ligand_Packing>
0

> <r_psp_Ligand_SelfCont>
0

> <r_psp_Ligand_Solv_GB>
-223.176538096545

> <r_psp_Ligand_vdW>
8.34888644464601

> <r_psp_Complex_Energy>
-60556.6889227007

> <r_psp_Complex_Coulomb>
-43282.6512400183

> <r_psp_Complex_Covalent>
7576.83457555006

> <r_psp_Complex_Hbond>
-775.720439030642

> <r_psp_Complex_Lipo>
-3892.83015177407

> <r_psp_Complex_Packing>
-137.896877955864

> <r_psp_Complex_SelfCont>
-172.058958621051

> <r_psp_Complex_Solv_GB>
-12990.463259297

> <r_psp_Complex_vdW>
-6881.90257155384

> <r_psp_Receptor_Energy>
-60206.872868158

> <r_psp_Receptor_Coulomb>
-42470.291639245

> <r_psp_Receptor_Covalent>
7535.75217599777

> <r_psp_Receptor_Hbond>
-767.822735774897

> <r_psp_Receptor_Lipo>
-3877.04876206181

> <r_psp_Receptor_Packing>
-136.00913152471

> <r_psp_Receptor_SelfCont>
-172.058958621051

> <r_psp_Receptor_Solv_GB>
-13496.3442169635

> <r_psp_Receptor_vdW>
-6823.04959996478

> <r_psp_MMGBSA_dG_Bind(NS)>
-87.6392387717642

> <r_psp_MMGBSA_dG_Bind(NS)_Coulomb>
-703.549271640419

> <r_psp_MMGBSA_dG_Bind(NS)_Covalent>
0

> <r_psp_MMGBSA_dG_Bind(NS)_Hbond>
-7.89770325574455

> <r_psp_MMGBSA_dG_Bind(NS)_Lipo>
-11.8315006518965

> <r_psp_MMGBSA_dG_Bind(NS)_Packing>
-1.88774643115346

> <r_psp_MMGBSA_dG_Bind(NS)_SelfCont>
0

> <r_psp_MMGBSA_dG_Bind(NS)_Solv_GB>
718.67061772767

> <r_psp_MMGBSA_dG_Bind(NS)_vdW>
-81.143634520231

> <r_psp_Rec_Strain_Energy>
0

> <r_psp_Rec_Strain_Coulomb>
0

> <r_psp_Rec_Strain_Covalent>
0

> <r_psp_Rec_Strain_Hbond>
0

> <r_psp_Rec_Strain_Lipo>
0

> <r_psp_Rec_Strain_Packing>
0

> <r_psp_Rec_Strain_SelfCont>
0

> <r_psp_Rec_Strain_Solv_GB>
0

> <r_psp_Rec_Strain_vdW>
0

> <r_psp_Prime_MMGBSA_ligand_efficiency>
-0.963551890336877

> <r_psp_Prime_MMGBSA_ligand_efficiency_sa>
-1.44532783550532

> <r_psp_Prime_MMGBSA_ligand_efficiency_ln>
-12.5532008464957

> <Name>
43

> <s_m_subgroup_title>
prime_mmgbsa_all-20230714-out

> <s_m_subgroupid>
prime_mmgbsa_all-20230714-out

> <b_m_subgroup_collapsed>
0

$$$$
