STS005_prime_MMGBSA_result_66
                    3D
 Schrodinger Suite 2021-3.
147148  0  0  1  0            999 V2000
  192.4104  208.4735  251.5680 C   0  0  0  0  0  0
  192.7060  207.1757  251.7633 N   0  0  0  0  0  0
  193.8388  206.7252  252.5757 C   0  0  1  0  0  0
  193.7597  207.2168  254.0257 C   0  0  0  0  0  0
  194.6542  208.1663  254.3315 N   0  0  0  0  0  0
  194.7984  208.8630  255.6080 C   0  0  1  0  0  0
  193.5567  209.6665  256.0471 C   0  0  0  0  0  0
  192.6807  210.0459  255.0997 N   0  0  0  0  0  0
  191.5689  210.9856  255.3084 C   0  0  1  0  0  0
  192.1462  212.4119  255.4147 C   0  0  0  0  0  0
  192.7822  212.6944  256.5528 N   0  0  0  0  0  0
  193.3849  213.9741  256.8771 C   0  0  1  0  0  0
  192.6185  214.5102  258.0868 C   0  0  0  0  0  0
  191.5281  215.2295  257.7941 N   0  0  0  0  0  0
  190.5335  215.7988  258.7083 C   0  0  1  0  0  0
  189.6247  214.7401  259.3637 C   0  0  0  0  0  0
  189.0467  215.0882  260.5195 N   0  0  0  0  0  0
  191.3637  208.8043  250.5285 C   0  0  0  0  0  0
  192.9623  209.3970  252.1694 O   0  0  0  0  0  0
  194.1697  205.2265  252.4597 C   0  0  0  0  0  0
  195.7160  204.7651  253.3010 S   0  0  0  0  0  0
  192.8870  206.7886  254.7811 O   0  0  0  0  0  0
  195.3280  207.9078  256.7001 C   0  0  0  0  0  0
  193.4490  210.0020  257.2276 O   0  0  0  0  0  0
  190.4785  210.8335  254.2088 C   0  0  0  0  0  0
  192.0530  213.1992  254.4739 O   0  0  0  0  0  0
  194.8975  213.7665  257.1208 C   0  0  0  0  0  0
  187.9292  214.3900  261.1429 C   0  0  1  0  0  0
  188.3798  213.5710  262.3538 C   0  0  0  0  0  0
  187.8751  212.3365  262.4386 N   0  0  0  0  0  0
  187.9511  211.4631  263.6177 C   0  0  1  0  0  0
  186.8237  211.7240  264.6509 C   0  0  0  0  0  0
  193.0077  214.2294  259.2173 O   0  0  0  0  0  0
  189.3791  213.6980  258.7584 O   0  0  0  0  0  0
  186.9096  215.4495  261.6015 C   0  0  0  0  0  0
  189.0963  214.0954  263.2050 O   0  0  0  0  0  0
  185.7167  212.3494  264.2708 N   0  0  0  0  0  0
  186.9509  211.3457  265.8092 O   0  0  0  0  0  0
  187.9364  210.0016  263.1135 C   0  0  0  0  0  0
  188.3421  208.9154  264.1210 C   0  0  0  0  0  0
  191.1254  216.8971  259.6362 C   0  0  0  0  0  0
  191.8960  216.4224  260.8944 C   0  0  0  0  0  0
  193.3692  216.8699  260.9252 C   0  0  0  0  0  0
  193.4905  218.3175  261.1648 N   0  0  0  0  0  0
  194.5642  218.9951  261.6073 C   0  0  0  0  0  0
  195.7427  218.4046  261.8642 N   0  0  0  0  0  0
  194.4359  220.3082  261.8184 N   0  3  0  0  0  0
  188.1423  207.5154  263.5222 C   0  0  0  0  0  0
  188.8767  206.4666  264.2497 N   0  0  0  0  0  0
  190.0812  205.9630  263.9127 C   0  0  0  0  0  0
  190.5571  204.9015  264.5770 N   0  3  0  0  0  0
  190.8046  206.4853  262.9109 N   0  0  0  0  0  0
  195.7138  215.0720  257.0966 C   0  0  0  0  0  0
  197.2197  214.8186  257.2915 C   0  0  0  0  0  0
  198.0488  215.9714  256.8917 N   0  0  0  0  0  0
  198.5278  216.2147  255.6532 C   0  0  0  0  0  0
  199.3209  217.2720  255.4430 N   0  0  0  0  0  0
  198.2353  215.4233  254.6092 N   0  3  0  0  0  0
  189.3133  211.8347  254.2613 C   0  0  0  0  0  0
  188.6604  212.1783  255.4566 C   0  0  0  0  0  0
  187.5879  213.0821  255.4413 C   0  0  0  0  0  0
  187.1412  213.6115  254.2270 C   0  0  0  0  0  0
  187.7950  213.2849  253.0421 C   0  0  0  0  0  0
  188.8793  212.4117  253.0641 C   0  0  0  0  0  0
  186.9111  213.4187  256.6534 N   0  0  0  0  0  0
  186.6159  214.6354  257.1266 C   0  0  0  0  0  0
  185.8494  214.7335  258.1952 N   0  3  0  0  0  0
  187.0342  215.7734  256.5928 N   0  0  0  0  0  0
  196.6408  207.2401  256.3712 C   0  0  0  0  0  0
  196.8475  205.8675  256.5259 N   0  0  0  0  0  0
  198.1120  205.6615  256.1932 C   0  0  0  0  0  0
  198.7475  206.7812  255.8550 N   0  0  0  0  0  0
  197.8252  207.8105  255.9513 C   0  0  0  0  0  0
  192.1552  206.4575  251.3079 H   0  0  0  0  0  0
  194.6695  207.2324  252.1042 H   0  0  0  0  0  0
  195.3078  208.4243  253.6009 H   0  0  0  0  0  0
  195.5676  209.6183  255.4462 H   0  0  0  0  0  0
  192.8495  209.7524  254.1403 H   0  0  0  0  0  0
  191.1055  210.7494  256.2689 H   0  0  0  0  0  0
  192.8591  211.9596  257.2516 H   0  0  0  0  0  0
  193.2652  214.6716  256.0451 H   0  0  0  0  0  0
  191.2716  215.2732  256.8190 H   0  0  0  0  0  0
  189.8571  216.3238  258.0327 H   0  0  0  0  0  0
  189.3940  215.8923  261.0171 H   0  0  0  0  0  0
  191.5384  208.2590  249.6023 H   0  0  0  0  0  0
  191.3625  209.8702  250.3031 H   0  0  0  0  0  0
  190.3831  208.5418  250.9118 H   0  0  0  0  0  0
  193.3558  204.6199  252.8581 H   0  0  0  0  0  0
  194.3133  204.9735  251.4111 H   0  0  0  0  0  0
  196.5081  205.6156  252.6322 H   0  0  0  0  0  0
  195.4555  208.4445  257.6398 H   0  0  0  0  0  0
  194.5876  207.1324  256.9031 H   0  0  0  0  0  0
  190.9690  210.9207  253.2366 H   0  0  0  0  0  0
  190.0614  209.8254  254.2319 H   0  0  0  0  0  0
  195.0684  213.2204  258.0511 H   0  0  0  0  0  0
  195.2843  213.1251  256.3276 H   0  0  0  0  0  0
  187.4537  213.7250  260.4187 H   0  0  0  0  0  0
  187.3478  211.9789  261.6501 H   0  0  0  0  0  0
  188.9024  211.6492  264.1197 H   0  0  0  0  0  0
  186.0549  214.9935  262.1007 H   0  0  0  0  0  0
  187.3507  216.1513  262.3108 H   0  0  0  0  0  0
  186.5223  216.0237  260.7607 H   0  0  0  0  0  0
  185.5769  212.6125  263.3057 H   0  0  0  0  0  0
  184.9965  212.4948  264.9572 H   0  0  0  0  0  0
  186.9450  209.7728  262.7193 H   0  0  0  0  0  0
  188.6298  209.9184  262.2763 H   0  0  0  0  0  0
  189.3468  209.0668  264.5213 H   0  0  0  0  0  0
  187.6549  208.9971  264.9605 H   0  0  0  0  0  0
  191.7427  217.5637  259.0329 H   0  0  0  0  0  0
  190.3015  217.5307  259.9693 H   0  0  0  0  0  0
  191.3965  216.8815  261.7507 H   0  0  0  0  0  0
  191.8153  215.3531  261.0940 H   0  0  0  0  0  0
  193.9600  216.2484  261.5974 H   0  0  0  0  0  0
  193.7990  216.7259  259.9337 H   0  0  0  0  0  0
  192.6324  218.8397  261.0560 H   0  0  0  0  0  0
  196.4739  218.9278  262.3288 H   0  0  0  0  0  0
  195.8732  217.4161  261.7104 H   0  0  0  0  0  0
  195.1665  220.7950  262.3252 H   0  0  0  0  0  0
  187.0992  207.2408  263.6863 H   0  0  0  0  0  0
  188.2749  207.4782  262.4398 H   0  0  0  0  0  0
  188.3620  206.0141  264.9932 H   0  0  0  0  0  0
  191.4261  204.4621  264.3023 H   0  0  0  0  0  0
  191.6567  206.0421  262.5785 H   0  0  0  0  0  0
  190.4643  207.2950  262.4134 H   0  0  0  0  0  0
  195.5131  215.6663  256.2032 H   0  0  0  0  0  0
  195.3626  215.6679  257.9409 H   0  0  0  0  0  0
  197.4064  214.7372  258.3633 H   0  0  0  0  0  0
  197.5554  213.8726  256.8644 H   0  0  0  0  0  0
  198.2737  216.6225  257.6313 H   0  0  0  0  0  0
  199.6881  217.4642  254.5228 H   0  0  0  0  0  0
  199.5854  217.8995  256.1912 H   0  0  0  0  0  0
  198.5993  215.6192  253.6883 H   0  0  0  0  0  0
  188.9872  211.7472  256.3938 H   0  0  0  0  0  0
  186.2890  214.2762  254.1876 H   0  0  0  0  0  0
  187.4563  213.6921  252.1001 H   0  0  0  0  0  0
  189.3647  212.1603  252.1310 H   0  0  0  0  0  0
  186.7350  212.6638  257.3014 H   0  0  0  0  0  0
  185.3118  215.5727  258.3560 H   0  0  0  0  0  0
  186.7894  216.6541  257.0165 H   0  0  0  0  0  0
  187.6277  215.7458  255.7780 H   0  0  0  0  0  0
  198.5772  204.6893  256.2310 H   0  0  0  0  0  0
  199.7204  206.8564  255.5848 H   0  0  0  0  0  0
  198.0794  208.8355  255.7325 H   0  0  0  0  0  0
  190.0205  204.4767  265.3187 H   0  0  0  0  0  0
  193.5258  220.7434  261.7626 H   0  0  0  0  0  0
  197.6269  214.6285  254.7401 H   0  0  0  0  0  0
  185.6072  213.9157  258.7469 H   0  0  0  0  0  0
  1  2  1  0  0  0
  1 18  1  0  0  0
  1 19  2  0  0  0
  2  3  1  0  0  0
  2 74  1  0  0  0
  3  4  1  0  0  0
  3 20  1  0  0  0
  3 75  1  0  0  0
  4  5  1  0  0  0
  4 22  2  0  0  0
  5  6  1  0  0  0
  5 76  1  0  0  0
  6  7  1  0  0  0
  6 23  1  0  0  0
  6 77  1  0  0  0
  7  8  1  0  0  0
  7 24  2  0  0  0
  8  9  1  0  0  0
  8 78  1  0  0  0
  9 10  1  0  0  0
  9 25  1  0  0  0
  9 79  1  0  0  0
 10 11  1  0  0  0
 10 26  2  0  0  0
 11 12  1  0  0  0
 11 80  1  0  0  0
 12 13  1  0  0  0
 12 27  1  0  0  0
 12 81  1  0  0  0
 13 14  1  0  0  0
 13 33  2  0  0  0
 14 15  1  0  0  0
 14 82  1  0  0  0
 15 16  1  0  0  0
 15 41  1  0  0  0
 15 83  1  0  0  0
 16 17  1  0  0  0
 16 34  2  0  0  0
 17 28  1  0  0  0
 17 84  1  0  0  0
 18 85  1  0  0  0
 18 86  1  0  0  0
 18 87  1  0  0  0
 20 21  1  0  0  0
 20 88  1  0  0  0
 20 89  1  0  0  0
 21 90  1  0  0  0
 23 69  1  0  0  0
 23 91  1  0  0  0
 23 92  1  0  0  0
 25 59  1  0  0  0
 25 93  1  0  0  0
 25 94  1  0  0  0
 27 53  1  0  0  0
 27 95  1  0  0  0
 27 96  1  0  0  0
 28 29  1  0  0  0
 28 35  1  0  0  0
 28 97  1  0  0  0
 29 30  1  0  0  0
 29 36  2  0  0  0
 30 31  1  0  0  0
 30 98  1  0  0  0
 31 32  1  0  0  0
 31 39  1  0  0  0
 31 99  1  0  0  0
 32 37  1  0  0  0
 32 38  2  0  0  0
 35100  1  0  0  0
 35101  1  0  0  0
 35102  1  0  0  0
 37103  1  0  0  0
 37104  1  0  0  0
 39 40  1  0  0  0
 39105  1  0  0  0
 39106  1  0  0  0
 40 48  1  0  0  0
 40107  1  0  0  0
 40108  1  0  0  0
 41 42  1  0  0  0
 41109  1  0  0  0
 41110  1  0  0  0
 42 43  1  0  0  0
 42111  1  0  0  0
 42112  1  0  0  0
 43 44  1  0  0  0
 43113  1  0  0  0
 43114  1  0  0  0
 44 45  1  0  0  0
 44115  1  0  0  0
 45 46  1  0  0  0
 45 47  2  0  0  0
 46116  1  0  0  0
 46117  1  0  0  0
 47118  1  0  0  0
 47145  1  0  0  0
 48 49  1  0  0  0
 48119  1  0  0  0
 48120  1  0  0  0
 49 50  1  0  0  0
 49121  1  0  0  0
 50 51  2  0  0  0
 50 52  1  0  0  0
 51122  1  0  0  0
 51144  1  0  0  0
 52123  1  0  0  0
 52124  1  0  0  0
 53 54  1  0  0  0
 53125  1  0  0  0
 53126  1  0  0  0
 54 55  1  0  0  0
 54127  1  0  0  0
 54128  1  0  0  0
 55 56  1  0  0  0
 55129  1  0  0  0
 56 57  1  0  0  0
 56 58  2  0  0  0
 57130  1  0  0  0
 57131  1  0  0  0
 58132  1  0  0  0
 58146  1  0  0  0
 59 60  2  0  0  0
 59 64  1  0  0  0
 60 61  1  0  0  0
 60133  1  0  0  0
 61 62  2  0  0  0
 61 65  1  0  0  0
 62 63  1  0  0  0
 62134  1  0  0  0
 63 64  2  0  0  0
 63135  1  0  0  0
 64136  1  0  0  0
 65 66  1  0  0  0
 65137  1  0  0  0
 66 67  2  0  0  0
 66 68  1  0  0  0
 67138  1  0  0  0
 67147  1  0  0  0
 68139  1  0  0  0
 68140  1  0  0  0
 69 70  1  0  0  0
 69 73  2  0  0  0
 70 71  2  0  0  0
 71 72  1  0  0  0
 71141  1  0  0  0
 72 73  1  0  0  0
 72142  1  0  0  0
 73143  1  0  0  0
M  CHG  4  47   1  51   1  58   1  67   1
M  END
> <s_m_entry_id>
39

> <s_m_entry_name>
STS005-ligand-20230714.64

> <s_m_Source_Path>
D:\xubinbin\STS005

> <s_m_Source_File>
prime_mmgbsa_all-20230714-out.maegz

> <i_m_Source_File_Index>
39

> <s_psp_Prime_MMGBSA_Input_Structure_Hash>
ad22ac6882609de64c2a6ac4c3c82d7969f0d360a842e04efb75bfd5

> <i_psp_number_heavy_atoms>
73

> <b_psp_distorted_structure>
1

> <i_psp_model_num>
0

> <r_psp_Prime_Coulomb>
-43188.0664728487

> <r_psp_Prime_Covalent>
7579.83905418493

> <r_psp_Prime_vdW>
-6878.47733644481

> <r_psp_Prime_Lipo>
-3892.69244396132

> <r_psp_Prime_Solv_GB>
-13096.8746782216

> <r_psp_Prime_Energy>
-60563.1481868704

> <s_psp_Prime_Energy_Force_Field>
S-OPLS

> <s_psp_Prime_Energy_Solvent_Model>
VSGB2.1

> <r_psp_Prime_Bond_Covalent>
955.873434860892

> <r_psp_Prime_Bond_SGB>
111452.233213899

> <r_psp_Prime_Angle_Covalent>
3215.12100531816

> <r_psp_Prime_Angle_SGB>
-44105.6742464541

> <r_psp_Prime_Torsion_Covalent>
3408.84461400588

> <r_psp_Prime_NB14_LJ>
7961.37875835824

> <r_psp_Prime_NB14_Lipo>
0

> <r_psp_Prime_NB14_Elec>
48355.4988476889

> <r_psp_Prime_NB14_SGB>
-41208.143189815

> <r_psp_Prime_NBShort_LJ>
-14074.5025726653

> <r_psp_Prime_NBShort_Lipo>
-3892.69244396132

> <r_psp_Prime_NBShort_Elec>
-95827.1307354467

> <r_psp_Prime_NBShort_SGB>
45124.644390403

> <r_psp_Prime_NBLong_LJ>
-765.353522137743

> <r_psp_Prime_NBLong_Lipo>
0

> <r_psp_Prime_NBLong_Elec>
4283.56541490905

> <r_psp_Prime_NBLong_SGB>
-4099.21477761879

> <r_psp_Prime_Self_SGB>
-80260.7200686357

> <r_psp_Prime_Hbond>
-775.939838252833

> <r_psp_Prime_Packing>
-138.87751270507

> <r_psp_Prime_SelfCont>
-172.058958621051

> <i_lp_mmshare_version>
54117

> <s_epik_input>
W0NIM11DKD1PKVtOSF1bQ0BIXShbQ0gyXVtTSF0pQyg9TylbTkhdW0NASF0oW0NIMl1jMW5bY0hdW25IXVtjSF0xKUMoPU8pW05IXVtDQEhdKFtDSDJdYzJbY0hdYyhbY0hdW2NIXVtjSF0yKVtOSF0vQyg9Ti9bSF0pW05IMl0pQyg9TylbTkhdW0NASF0oW0NIMl1bQ0gyXVtDSDJdW05IXS9DKFtOSDJdKT1OL1tIXSlDKD1PKVtOSF1bQ0BIXShbQ0gyXVtDSDJdW0NIMl1bTkhdL0MoW05IMl0pPU4vW0hdKUMoPU8pW05IXVtDQEhdKFtDSDNdKUMoPU8pW05IXVtDQEBIXShDKD1PKVtOSDJdKVtDSDJdW0NIMl1bQ0gyXVtOSF0vQyg9Ti9bSF0pW05IMl0=

> <s_epik_cmdline>
J2VwaWtfcHl0aG9uJywgJy1waCcsICc3LjAnLCAnLXRuJywgJzgnLCAnLW1hJywgJzUwMCcsICctaW1hZScsICc8aW5maWxlLm1hZT4nLCAnLW9tYWUnLCAnPG91dGZpbGUubWFlPic=

> <r_epik_Ionization_Penalty>
  0.6671

> <r_epik_Ionization_Penalty_Charging>
  0.6580

> <r_epik_Ionization_Penalty_Neutral>
  0.0091

> <r_epik_State_Penalty>
  0.8192

> <r_epik_Charging_Adjusted_Penalty>
1.47721635940574

> <i_epik_Tot_Q>
4

> <i_epik_Tot_abs_Q>
4

> <s_epik_Chemistry_Notes>
This compound has an imine and may undergo hydrolysis.

> <i_f3d_flags>
0

> <s_lp_Force_Field>
S-OPLS

> <r_lp_Energy>
12.814025

> <b_lp_Chiralities_Consistent>
1

> <s_lp_Variant>
098-3

> <s_i_glide_gridfile>
glide-grid_D-site

> <i_i_glide_lignum>
129

> <i_i_glide_rotatable_bonds>
44

> <r_i_docking_score>
-6.88265147586912

> <r_i_glide_ligand_efficiency>
-0.094282896929714

> <r_i_glide_ligand_efficiency_sa>
-0.394040206123188

> <r_i_glide_ligand_efficiency_ln>
-1.30095534280764

> <r_glide_XP_GScore>
-7.70185147586912

> <r_i_glide_gscore>
-7.70185147586912

> <r_i_glide_evdw>
-45.4946899414062

> <r_i_glide_ecoul>
-33.459659576416

> <r_i_glide_energy>
-78.9543495178223

> <r_i_glide_einternal>
34.5362968444824

> <r_i_glide_emodel>
-85.5014190673828

> <r_glide_XP_HBond>
-2.00344281635334

> <i_i_glide_confnum>
1

> <i_i_glide_posenum>
1

> <r_i_glide_eff_state_penalty>
0.8192

> <i_glide_XP_PoseRank>
1

> <s_psp_MMGBSA_moved_residues>


> <r_psp_MMGBSA_dG_Bind>
-57.3005249349299

> <r_psp_MMGBSA_dG_Bind_Coulomb>
-612.248512195576

> <r_psp_MMGBSA_dG_Bind_Covalent>
11.8614393146727

> <r_psp_MMGBSA_dG_Bind_Hbond>
-8.11710247793576

> <r_psp_MMGBSA_dG_Bind_Lipo>
-9.07388384380283

> <r_psp_MMGBSA_dG_Bind_Packing>
-2.8683811803601

> <r_psp_MMGBSA_dG_Bind_SelfCont>
0

> <r_psp_MMGBSA_dG_Bind_Solv_GB>
629.293120230273

> <r_psp_MMGBSA_dG_Bind_vdW>
-66.1472047821771

> <r_psp_Lig_Strain_Energy>
22.2304585957838

> <r_psp_Lig_Strain_Coulomb>
5.85021231114929

> <r_psp_Lig_Strain_Covalent>
11.8614393146696

> <r_psp_Lig_Strain_Hbond>
0

> <r_psp_Lig_Strain_Lipo>
1.72927020654008

> <r_psp_Lig_Strain_Packing>
0

> <r_psp_Lig_Strain_SelfCont>
0

> <r_psp_Lig_Strain_Solv_GB>
-3.14883883455718

> <r_psp_Lig_Strain_vdW>
5.93837559798193

> <r_psp_Ligand_Energy>
-298.974793777542

> <r_psp_Ligand_Coulomb>
-105.526321408095

> <r_psp_Ligand_Covalent>
32.2254388724852

> <r_psp_Ligand_Hbond>
0

> <r_psp_Ligand_Lipo>
-6.56979805571119

> <r_psp_Ligand_Packing>
0

> <r_psp_Ligand_SelfCont>
0

> <r_psp_Ligand_Solv_GB>
-229.823581488368

> <r_psp_Ligand_vdW>
10.7194683021477

> <r_psp_Complex_Energy>
-60563.1481868704

> <r_psp_Complex_Coulomb>
-43188.0664728487

> <r_psp_Complex_Covalent>
7579.83905418493

> <r_psp_Complex_Hbond>
-775.939838252833

> <r_psp_Complex_Lipo>
-3892.69244396132

> <r_psp_Complex_Packing>
-138.87751270507

> <r_psp_Complex_SelfCont>
-172.058958621051

> <r_psp_Complex_Solv_GB>
-13096.8746782216

> <r_psp_Complex_vdW>
-6878.47733644481

> <r_psp_Receptor_Energy>
-60206.872868158

> <r_psp_Receptor_Coulomb>
-42470.291639245

> <r_psp_Receptor_Covalent>
7535.75217599777

> <r_psp_Receptor_Hbond>
-767.822735774897

> <r_psp_Receptor_Lipo>
-3877.04876206181

> <r_psp_Receptor_Packing>
-136.00913152471

> <r_psp_Receptor_SelfCont>
-172.058958621051

> <r_psp_Receptor_Solv_GB>
-13496.3442169635

> <r_psp_Receptor_vdW>
-6823.04959996478

> <r_psp_MMGBSA_dG_Bind(NS)>
-79.5309835307125

> <r_psp_MMGBSA_dG_Bind(NS)_Coulomb>
-618.09872450673

> <r_psp_MMGBSA_dG_Bind(NS)_Covalent>
2.72848410531878e-12

> <r_psp_MMGBSA_dG_Bind(NS)_Hbond>
-8.11710247793576

> <r_psp_MMGBSA_dG_Bind(NS)_Lipo>
-10.803154050343

> <r_psp_MMGBSA_dG_Bind(NS)_Packing>
-2.8683811803601

> <r_psp_MMGBSA_dG_Bind(NS)_SelfCont>
0

> <r_psp_MMGBSA_dG_Bind(NS)_Solv_GB>
632.44195906483

> <r_psp_MMGBSA_dG_Bind(NS)_vdW>
-72.0855803801587

> <r_psp_Rec_Strain_Energy>
0

> <r_psp_Rec_Strain_Coulomb>
0

> <r_psp_Rec_Strain_Covalent>
0

> <r_psp_Rec_Strain_Hbond>
0

> <r_psp_Rec_Strain_Lipo>
0

> <r_psp_Rec_Strain_Packing>
0

> <r_psp_Rec_Strain_SelfCont>
0

> <r_psp_Rec_Strain_Solv_GB>
0

> <r_psp_Rec_Strain_vdW>
0

> <r_psp_Prime_MMGBSA_ligand_efficiency>
-0.784938697738765

> <r_psp_Prime_MMGBSA_ligand_efficiency_sa>
-1.17740804660815

> <r_psp_Prime_MMGBSA_ligand_efficiency_ln>
-10.830916590959

> <Name>
98

> <r_lp_tautomer_probability>
0.499999999999999

> <s_m_subgroup_title>
prime_mmgbsa_all-20230714-out

> <s_m_subgroupid>
prime_mmgbsa_all-20230714-out

> <b_m_subgroup_collapsed>
0

$$$$
