STS005_prime_MMGBSA_result_41
                    3D
 Schrodinger Suite 2021-3.
151151  0  0  1  0            999 V2000
  197.4795  217.8475  260.7520 C   0  0  0  0  0  0
  196.6063  217.2602  259.9298 N   0  0  0  0  0  0
  196.9060  216.2934  258.8771 C   0  0  1  0  0  0
  195.5833  215.5538  258.6041 C   0  0  0  0  0  0
  195.6369  214.4612  257.8382 N   0  0  0  0  0  0
  194.4711  213.6693  257.4516 C   0  0  1  0  0  0
  194.1368  213.9660  255.9895 C   0  0  0  0  0  0
  192.8411  213.9742  255.6377 N   0  0  0  0  0  0
  192.3895  213.9772  254.2406 C   0  0  1  0  0  0
  192.5156  212.5542  253.6669 C   0  0  0  0  0  0
  193.7699  212.1204  253.5194 N   0  0  0  0  0  0
  194.2169  210.8353  252.9954 C   0  0  1  0  0  0
  193.9347  209.6461  253.9245 C   0  0  0  0  0  0
  192.6516  209.3740  254.1595 N   0  0  0  0  0  0
  192.1506  208.1197  254.7080 C   0  0  1  0  0  0
  191.0032  208.4386  255.6674 C   0  0  0  0  0  0
  189.8906  207.7081  255.5211 N   0  0  0  0  0  0
  196.9189  218.7484  261.8393 C   0  0  0  0  0  0
  198.6937  217.6844  260.6684 O   0  0  0  0  0  0
  197.4699  217.0125  257.6284 C   0  0  0  0  0  0
  198.1088  215.9500  256.2989 S   0  0  0  0  0  0
  194.5380  215.9789  259.1078 O   0  0  0  0  0  0
  194.8137  212.1766  257.6050 C   0  0  0  0  0  0
  195.0591  214.0791  255.1790 O   0  0  0  0  0  0
  191.0149  214.6595  253.9845 C   0  0  0  0  0  0
  191.5234  211.8783  253.4018 O   0  0  0  0  0  0
  193.6628  210.5762  251.5673 C   0  0  0  0  0  0
  188.5780  207.9092  256.1243 C   0  0  1  0  0  0
  188.4912  207.7152  257.6545 C   0  0  0  0  0  0
  189.5847  207.9486  258.3941 N   0  0  0  0  0  0
  189.7373  207.7260  259.8490 C   0  0  1  0  0  0
  189.4869  206.2897  260.3872 C   0  0  0  0  0  0
  194.8655  208.9610  254.3406 O   0  0  0  0  0  0
  191.1461  209.3178  256.5155 O   0  0  0  0  0  0
  188.0257  209.2529  255.6428 C   0  0  0  0  0  0
  187.4419  207.2862  258.1232 O   0  0  0  0  0  0
  189.1898  205.3083  259.5589 N   0  0  0  0  0  0
  189.5715  206.0578  261.5867 O   0  0  0  0  0  0
  191.1411  208.2042  260.2976 C   0  0  0  0  0  0
  191.4330  209.7043  260.1014 C   0  0  0  0  0  0
  191.7224  207.2089  253.5261 C   0  0  0  0  0  0
  192.8665  206.7110  252.6436 C   0  0  0  0  0  0
  193.6710  205.6012  253.3302 C   0  0  0  0  0  0
  195.0124  205.5223  252.7588 N   0  0  0  0  0  0
  195.8409  204.4735  252.6934 C   0  0  0  0  0  0
  195.5061  203.2405  253.1049 N   0  0  0  0  0  0
  197.0591  204.7041  252.2050 N   0  3  0  0  0  0
  192.8293  210.0717  260.6401 C   0  0  0  0  0  0
  193.0428  211.5265  260.7392 N   0  0  0  0  0  0
  194.1212  212.1468  261.2631 C   0  0  0  0  0  0
  194.1567  213.4845  261.2917 N   0  3  0  0  0  0
  195.1655  211.4660  261.7634 N   0  0  0  0  0  0
  193.9523  211.7170  250.5649 C   0  0  0  0  0  0
  193.6155  211.3695  249.1030 C   0  0  0  0  0  0
  194.5341  210.3618  248.5422 N   0  0  0  0  0  0
  194.5794  209.9222  247.2682 C   0  0  0  0  0  0
  193.7816  210.4154  246.3074 N   0  0  0  0  0  0
  195.4516  208.9619  246.9435 N   0  3  0  0  0  0
  189.7939  214.0143  254.6352 C   0  0  0  0  0  0
  189.6070  214.0863  256.0166 C   0  0  0  0  0  0
  188.4630  213.5407  256.6008 C   0  0  0  0  0  0
  187.4964  212.9213  255.8008 C   0  0  0  0  0  0
  187.6837  212.8374  254.4218 C   0  0  0  0  0  0
  188.8282  213.3827  253.8420 C   0  0  0  0  0  0
  188.3424  213.5812  258.0181 N   0  0  0  0  0  0
  187.3166  214.0059  258.7582 C   0  0  0  0  0  0
  186.1871  214.5120  258.2852 N   0  3  0  0  0  0
  187.4401  213.9265  260.0648 N   0  0  0  0  0  0
  198.6036  217.2743  254.8311 S   0  0  0  0  0  0
  197.0466  217.5157  253.9164 C   0  0  0  0  0  0
  196.8136  218.9184  253.2846 C   0  0  2  0  0  0
  195.3580  219.1747  253.1464 N   0  0  0  0  0  0
  197.6280  219.1951  251.9478 C   0  0  0  0  0  0
  198.4771  218.3498  251.5837 O   0  0  0  0  0  0
  197.3831  220.2982  251.4006 O   0  5  0  0  0  0
  195.6052  217.3617  260.0616 H   0  0  0  0  0  0
  197.6403  215.5776  259.2545 H   0  0  0  0  0  0
  196.4871  214.2831  257.3170 H   0  0  0  0  0  0
  193.6099  213.9046  258.0798 H   0  0  0  0  0  0
  192.1347  213.7803  256.3294 H   0  0  0  0  0  0
  193.1007  214.5831  253.6731 H   0  0  0  0  0  0
  194.5019  212.7322  253.8730 H   0  0  0  0  0  0
  195.3006  210.9245  252.9438 H   0  0  0  0  0  0
  191.9625  210.0743  253.8890 H   0  0  0  0  0  0
  192.9196  207.6349  255.3118 H   0  0  0  0  0  0
  189.8849  207.0163  254.7880 H   0  0  0  0  0  0
  197.1995  218.3675  262.8208 H   0  0  0  0  0  0
  197.3291  219.7529  261.7405 H   0  0  0  0  0  0
  195.8321  218.8187  261.8012 H   0  0  0  0  0  0
  196.7077  217.6673  257.2036 H   0  0  0  0  0  0
  198.2971  217.6600  257.9235 H   0  0  0  0  0  0
  193.9513  211.5482  257.3756 H   0  0  0  0  0  0
  195.6211  211.8762  256.9340 H   0  0  0  0  0  0
  195.1303  211.9451  258.6211 H   0  0  0  0  0  0
  191.0543  215.6985  254.3150 H   0  0  0  0  0  0
  190.8441  214.7356  252.9088 H   0  0  0  0  0  0
  194.0779  209.6367  251.2036 H   0  0  0  0  0  0
  192.5858  210.4026  251.5987 H   0  0  0  0  0  0
  187.9398  207.1387  255.6892 H   0  0  0  0  0  0
  190.3617  208.3863  257.9088 H   0  0  0  0  0  0
  188.9880  208.3349  260.3522 H   0  0  0  0  0  0
  186.9539  209.2815  255.8018 H   0  0  0  0  0  0
  188.5009  210.0902  256.1555 H   0  0  0  0  0  0
  188.1860  209.3940  254.5756 H   0  0  0  0  0  0
  188.8872  205.5348  258.6202 H   0  0  0  0  0  0
  189.0503  204.3942  259.9548 H   0  0  0  0  0  0
  191.9048  207.5980  259.8067 H   0  0  0  0  0  0
  191.2472  207.9885  261.3633 H   0  0  0  0  0  0
  190.6488  210.3345  260.5254 H   0  0  0  0  0  0
  191.4230  209.8938  259.0279 H   0  0  0  0  0  0
  191.1907  206.3224  253.8712 H   0  0  0  0  0  0
  191.0316  207.7801  252.9043 H   0  0  0  0  0  0
  192.3909  206.2710  251.7630 H   0  0  0  0  0  0
  193.4861  207.5156  252.2490 H   0  0  0  0  0  0
  193.6977  205.6832  254.4160 H   0  0  0  0  0  0
  193.1859  204.6532  253.0974 H   0  0  0  0  0  0
  195.4018  206.4160  252.4713 H   0  0  0  0  0  0
  196.1921  202.4954  253.0619 H   0  0  0  0  0  0
  194.5836  203.0481  253.4654 H   0  0  0  0  0  0
  197.7573  203.9677  252.1963 H   0  0  0  0  0  0
  193.5628  209.7478  259.9003 H   0  0  0  0  0  0
  193.0664  209.5449  261.5653 H   0  0  0  0  0  0
  192.2892  212.0978  260.3839 H   0  0  0  0  0  0
  193.4032  214.0342  260.9034 H   0  0  0  0  0  0
  195.9674  211.9454  262.1486 H   0  0  0  0  0  0
  195.1443  210.4586  261.7982 H   0  0  0  0  0  0
  193.4629  212.6502  250.8445 H   0  0  0  0  0  0
  195.0212  211.9290  250.6290 H   0  0  0  0  0  0
  192.6329  210.8959  249.0798 H   0  0  0  0  0  0
  193.5408  212.2667  248.4878 H   0  0  0  0  0  0
  195.2028  209.9909  249.2096 H   0  0  0  0  0  0
  193.8821  210.1161  245.3454 H   0  0  0  0  0  0
  193.1035  211.1302  246.5260 H   0  0  0  0  0  0
  195.5190  208.6324  245.9902 H   0  0  0  0  0  0
  190.3429  214.5899  256.6271 H   0  0  0  0  0  0
  186.6033  212.4966  256.2346 H   0  0  0  0  0  0
  186.9480  212.3495  253.7989 H   0  0  0  0  0  0
  188.9684  213.3000  252.7728 H   0  0  0  0  0  0
  189.1505  213.2974  258.5493 H   0  0  0  0  0  0
  185.3328  214.4091  258.8229 H   0  0  0  0  0  0
  186.5759  213.8817  260.5950 H   0  0  0  0  0  0
  188.2347  213.4326  260.4400 H   0  0  0  0  0  0
  196.9398  216.7230  253.1756 H   0  0  0  0  0  0
  196.2496  217.3327  254.6378 H   0  0  0  0  0  0
  197.2158  219.6453  253.9938 H   0  0  0  0  0  0
  195.2154  220.1670  252.9943 H   0  0  0  0  0  0
  195.0215  218.7555  252.2877 H   0  0  0  0  0  0
  194.9517  213.9746  261.6751 H   0  0  0  0  0  0
  197.3294  205.6536  251.9614 H   0  0  0  0  0  0
  196.0854  208.5839  247.6333 H   0  0  0  0  0  0
  186.1599  214.9009  257.3561 H   0  0  0  0  0  0
  1  2  1  0  0  0
  1 18  1  0  0  0
  1 19  2  0  0  0
  2  3  1  0  0  0
  2 76  1  0  0  0
  3  4  1  0  0  0
  3 20  1  0  0  0
  3 77  1  0  0  0
  4  5  1  0  0  0
  4 22  2  0  0  0
  5  6  1  0  0  0
  5 78  1  0  0  0
  6  7  1  0  0  0
  6 23  1  0  0  0
  6 79  1  0  0  0
  7  8  1  0  0  0
  7 24  2  0  0  0
  8  9  1  0  0  0
  8 80  1  0  0  0
  9 10  1  0  0  0
  9 25  1  0  0  0
  9 81  1  0  0  0
 10 11  1  0  0  0
 10 26  2  0  0  0
 11 12  1  0  0  0
 11 82  1  0  0  0
 12 13  1  0  0  0
 12 27  1  0  0  0
 12 83  1  0  0  0
 13 14  1  0  0  0
 13 33  2  0  0  0
 14 15  1  0  0  0
 14 84  1  0  0  0
 15 16  1  0  0  0
 15 41  1  0  0  0
 15 85  1  0  0  0
 16 17  1  0  0  0
 16 34  2  0  0  0
 17 28  1  0  0  0
 17 86  1  0  0  0
 18 87  1  0  0  0
 18 88  1  0  0  0
 18 89  1  0  0  0
 20 21  1  0  0  0
 20 90  1  0  0  0
 20 91  1  0  0  0
 21 69  1  0  0  0
 23 92  1  0  0  0
 23 93  1  0  0  0
 23 94  1  0  0  0
 25 59  1  0  0  0
 25 95  1  0  0  0
 25 96  1  0  0  0
 27 53  1  0  0  0
 27 97  1  0  0  0
 27 98  1  0  0  0
 28 29  1  0  0  0
 28 35  1  0  0  0
 28 99  1  0  0  0
 29 30  1  0  0  0
 29 36  2  0  0  0
 30 31  1  0  0  0
 30100  1  0  0  0
 31 32  1  0  0  0
 31 39  1  0  0  0
 31101  1  0  0  0
 32 37  1  0  0  0
 32 38  2  0  0  0
 35102  1  0  0  0
 35103  1  0  0  0
 35104  1  0  0  0
 37105  1  0  0  0
 37106  1  0  0  0
 39 40  1  0  0  0
 39107  1  0  0  0
 39108  1  0  0  0
 40 48  1  0  0  0
 40109  1  0  0  0
 40110  1  0  0  0
 41 42  1  0  0  0
 41111  1  0  0  0
 41112  1  0  0  0
 42 43  1  0  0  0
 42113  1  0  0  0
 42114  1  0  0  0
 43 44  1  0  0  0
 43115  1  0  0  0
 43116  1  0  0  0
 44 45  1  0  0  0
 44117  1  0  0  0
 45 46  1  0  0  0
 45 47  2  0  0  0
 46118  1  0  0  0
 46119  1  0  0  0
 47120  1  0  0  0
 47149  1  0  0  0
 48 49  1  0  0  0
 48121  1  0  0  0
 48122  1  0  0  0
 49 50  1  0  0  0
 49123  1  0  0  0
 50 51  2  0  0  0
 50 52  1  0  0  0
 51124  1  0  0  0
 51148  1  0  0  0
 52125  1  0  0  0
 52126  1  0  0  0
 53 54  1  0  0  0
 53127  1  0  0  0
 53128  1  0  0  0
 54 55  1  0  0  0
 54129  1  0  0  0
 54130  1  0  0  0
 55 56  1  0  0  0
 55131  1  0  0  0
 56 57  1  0  0  0
 56 58  2  0  0  0
 57132  1  0  0  0
 57133  1  0  0  0
 58134  1  0  0  0
 58150  1  0  0  0
 59 60  2  0  0  0
 59 64  1  0  0  0
 60 61  1  0  0  0
 60135  1  0  0  0
 61 62  2  0  0  0
 61 65  1  0  0  0
 62 63  1  0  0  0
 62136  1  0  0  0
 63 64  2  0  0  0
 63137  1  0  0  0
 64138  1  0  0  0
 65 66  1  0  0  0
 65139  1  0  0  0
 66 67  2  0  0  0
 66 68  1  0  0  0
 67140  1  0  0  0
 67151  1  0  0  0
 68141  1  0  0  0
 68142  1  0  0  0
 69 70  1  0  0  0
 70 71  1  0  0  0
 70143  1  0  0  0
 70144  1  0  0  0
 71 73  1  0  0  0
 71 72  1  0  0  0
 71145  1  0  0  0
 72146  1  0  0  0
 72147  1  0  0  0
 73 74  2  0  0  0
 73 75  1  0  0  0
M  CHG  5  47   1  51   1  58   1  67   1  75  -1
M  END
> <s_m_entry_id>
37

> <s_m_entry_name>
STS005-ligand-20230714.40

> <s_m_Source_Path>
D:\xubinbin\STS005

> <s_m_Source_File>
prime_mmgbsa_all-20230714-out.maegz

> <i_m_Source_File_Index>
37

> <s_psp_Prime_MMGBSA_Input_Structure_Hash>
71ed834fd1fd84b32fa84c998fde2e8f4819d45863cb494143bffa18

> <i_psp_number_heavy_atoms>
75

> <b_psp_distorted_structure>
1

> <i_psp_model_num>
0

> <r_psp_Prime_Coulomb>
-43178.4897165593

> <r_psp_Prime_Covalent>
7583.07648734269

> <r_psp_Prime_vdW>
-6874.25436231942

> <r_psp_Prime_Lipo>
-3895.39711636635

> <r_psp_Prime_Solv_GB>
-13114.7498493414

> <r_psp_Prime_Energy>
-60565.1985911656

> <s_psp_Prime_Energy_Force_Field>
S-OPLS

> <s_psp_Prime_Energy_Solvent_Model>
VSGB2.1

> <r_psp_Prime_Bond_Covalent>
956.760180044304

> <r_psp_Prime_Bond_SGB>
111516.494772372

> <r_psp_Prime_Angle_Covalent>
3218.67608845136

> <r_psp_Prime_Angle_SGB>
-44097.4661170964

> <r_psp_Prime_Torsion_Covalent>
3407.64021884703

> <r_psp_Prime_NB14_LJ>
7964.15522196886

> <r_psp_Prime_NB14_Lipo>
0

> <r_psp_Prime_NB14_Elec>
48439.1324683553

> <r_psp_Prime_NB14_SGB>
-41245.9003522147

> <r_psp_Prime_NBShort_LJ>
-14072.9839411979

> <r_psp_Prime_NBShort_Lipo>
-3895.39711636635

> <r_psp_Prime_NBShort_Elec>
-96099.105604299

> <r_psp_Prime_NBShort_SGB>
45322.8126562958

> <r_psp_Prime_NBLong_LJ>
-765.425643090379

> <r_psp_Prime_NBLong_Lipo>
0

> <r_psp_Prime_NBLong_Elec>
4481.48341938443

> <r_psp_Prime_NBLong_SGB>
-4291.60211571523

> <r_psp_Prime_Self_SGB>
-80319.0886929827

> <r_psp_Prime_Hbond>
-776.820609087141

> <r_psp_Prime_Packing>
-136.504466213613

> <r_psp_Prime_SelfCont>
-172.058958621051

> <i_lp_mmshare_version>
54117

> <s_epik_input>
Tz1DKFtPSF0pW0NAQEhdKFtOSDJdKVtDSDJdU1NbQ0gyXVtDQEBIXShbTkhdQyg9TylbQ0gzXSlDKD1PKVtOSF1bQ0BIXShbQ0gzXSlDKD1PKVtOSF1bQ0BIXShbQ0gyXWMxW2NIXWMoW2NIXVtjSF1bY0hdMSlbTkhdL0MoPU4vW0hdKVtOSDJdKUMoPU8pW05IXVtDQEhdKFtDSDJdW0NIMl1bQ0gyXVtOSF0vQyhbTkgyXSk9Ti9bSF0pQyg9TylbTkhdW0NASF0oW0NIMl1bQ0gyXVtDSDJdW05IXS9DKFtOSDJdKT1OL1tIXSlDKD1PKVtOSF1bQ0BIXShbQ0gzXSlDKD1PKVtOSF1bQ0BASF0oQyg9TylbTkgyXSlbQ0gyXVtDSDJdW0NIMl1bTkhdL0MoPU4vW0hdKVtOSDJd

> <s_epik_cmdline>
J2VwaWtfcHl0aG9uJywgJy1waCcsICc3LjAnLCAnLXRuJywgJzgnLCAnLW1hJywgJzUwMCcsICctaW1hZScsICc8aW5maWxlLm1hZT4nLCAnLW9tYWUnLCAnPG91dGZpbGUubWFlPic=

> <r_epik_Ionization_Penalty>
  2.0754

> <r_epik_Ionization_Penalty_Charging>
  0.0004

> <r_epik_Ionization_Penalty_Neutral>
  2.0749

> <r_epik_State_Penalty>
  2.2092

> <r_epik_Charging_Adjusted_Penalty>
2.20961978958154

> <i_epik_Tot_Q>
3

> <i_epik_Tot_abs_Q>
5

> <s_epik_Chemistry_Notes>
This compound has an imine and may undergo hydrolysis.

> <i_f3d_flags>
0

> <s_lp_Force_Field>
S-OPLS

> <r_lp_Energy>
38.173595

> <b_lp_Chiralities_Consistent>
1

> <s_lp_Variant>
069-2

> <s_i_glide_gridfile>
glide-grid_D-site

> <i_i_glide_lignum>
80

> <i_i_glide_rotatable_bonds>
46

> <r_i_docking_score>
-7.00291999016176

> <r_i_glide_ligand_efficiency>
-0.0933722665354901

> <r_i_glide_ligand_efficiency_sa>
-0.393766097579775

> <r_i_glide_ligand_efficiency_ln>
-1.31696015875146

> <r_glide_XP_GScore>
-9.21211999016176

> <r_i_glide_gscore>
-9.21211999016176

> <r_i_glide_evdw>
-47.6546936035156

> <r_i_glide_ecoul>
-32.9336776733398

> <r_i_glide_energy>
-80.5883712768555

> <r_i_glide_einternal>
0

> <r_i_glide_emodel>
-90.0091096538896

> <r_glide_XP_HBond>
-2.16450945730207

> <i_i_glide_confnum>
1

> <i_i_glide_posenum>
9

> <r_i_glide_eff_state_penalty>
2.2092

> <i_glide_XP_PoseRank>
1

> <s_psp_MMGBSA_moved_residues>


> <r_psp_MMGBSA_dG_Bind>
-36.4986115335996

> <r_psp_MMGBSA_dG_Bind_Coulomb>
-544.528244965542

> <r_psp_MMGBSA_dG_Bind_Covalent>
11.2532127536733

> <r_psp_MMGBSA_dG_Bind_Hbond>
-8.99787331224411

> <r_psp_MMGBSA_dG_Bind_Lipo>
-6.74373941951944

> <r_psp_MMGBSA_dG_Bind_Packing>
-0.495334688902602

> <r_psp_MMGBSA_dG_Bind_SelfCont>
0

> <r_psp_MMGBSA_dG_Bind_Solv_GB>
573.550614513579

> <r_psp_MMGBSA_dG_Bind_vdW>
-60.5372464146431

> <r_psp_Lig_Strain_Energy>
35.0695985224671

> <r_psp_Lig_Strain_Coulomb>
27.3524969379432

> <r_psp_Lig_Strain_Covalent>
11.2532127536688

> <r_psp_Lig_Strain_Hbond>
0

> <r_psp_Lig_Strain_Lipo>
4.97750458332145

> <r_psp_Lig_Strain_Packing>
0

> <r_psp_Lig_Strain_SelfCont>
0

> <r_psp_Lig_Strain_Solv_GB>
-21.4535160985363

> <r_psp_Lig_Strain_vdW>
12.9399003460698

> <r_psp_Ligand_Energy>
-321.82711147404

> <r_psp_Ligand_Coulomb>
-163.669832348713

> <r_psp_Ligand_Covalent>
36.071098591244

> <r_psp_Ligand_Hbond>
0

> <r_psp_Ligand_Lipo>
-11.6046148850267

> <r_psp_Ligand_Packing>
0

> <r_psp_Ligand_SelfCont>
0

> <r_psp_Ligand_Solv_GB>
-191.956246891545

> <r_psp_Ligand_vdW>
9.33248406000089

> <r_psp_Complex_Energy>
-60565.1985911656

> <r_psp_Complex_Coulomb>
-43178.4897165593

> <r_psp_Complex_Covalent>
7583.07648734269

> <r_psp_Complex_Hbond>
-776.820609087141

> <r_psp_Complex_Lipo>
-3895.39711636635

> <r_psp_Complex_Packing>
-136.504466213613

> <r_psp_Complex_SelfCont>
-172.058958621051

> <r_psp_Complex_Solv_GB>
-13114.7498493414

> <r_psp_Complex_vdW>
-6874.25436231942

> <r_psp_Receptor_Energy>
-60206.872868158

> <r_psp_Receptor_Coulomb>
-42470.291639245

> <r_psp_Receptor_Covalent>
7535.75217599777

> <r_psp_Receptor_Hbond>
-767.822735774897

> <r_psp_Receptor_Lipo>
-3877.04876206181

> <r_psp_Receptor_Packing>
-136.00913152471

> <r_psp_Receptor_SelfCont>
-172.058958621051

> <r_psp_Receptor_Solv_GB>
-13496.3442169635

> <r_psp_Receptor_vdW>
-6823.04959996478

> <r_psp_MMGBSA_dG_Bind(NS)>
-71.5682100560662

> <r_psp_MMGBSA_dG_Bind(NS)_Coulomb>
-571.880741903486

> <r_psp_MMGBSA_dG_Bind(NS)_Covalent>
4.54747350886464e-12

> <r_psp_MMGBSA_dG_Bind(NS)_Hbond>
-8.99787331224411

> <r_psp_MMGBSA_dG_Bind(NS)_Lipo>
-11.7212440028411

> <r_psp_MMGBSA_dG_Bind(NS)_Packing>
-0.495334688902602

> <r_psp_MMGBSA_dG_Bind(NS)_SelfCont>
0

> <r_psp_MMGBSA_dG_Bind(NS)_Solv_GB>
595.004130612115

> <r_psp_MMGBSA_dG_Bind(NS)_vdW>
-73.4771467607134

> <r_psp_Rec_Strain_Energy>
0

> <r_psp_Rec_Strain_Coulomb>
0

> <r_psp_Rec_Strain_Covalent>
0

> <r_psp_Rec_Strain_Hbond>
0

> <r_psp_Rec_Strain_Lipo>
0

> <r_psp_Rec_Strain_Packing>
0

> <r_psp_Rec_Strain_SelfCont>
0

> <r_psp_Rec_Strain_Solv_GB>
0

> <r_psp_Rec_Strain_vdW>
0

> <r_psp_Prime_MMGBSA_ligand_efficiency>
-0.486648153781328

> <r_psp_Prime_MMGBSA_ligand_efficiency_sa>
-0.729972230671992

> <r_psp_Prime_MMGBSA_ligand_efficiency_ln>
-6.86388211018055

> <Name>
69

> <s_m_subgroup_title>
prime_mmgbsa_all-20230714-out

> <s_m_subgroupid>
prime_mmgbsa_all-20230714-out

> <b_m_subgroup_collapsed>
0

$$$$
