STS005_prime_MMGBSA_result_45
                    3D
 Schrodinger Suite 2021-3.
140140  0  0  1  0            999 V2000
  180.0440  215.1011  252.5517 C   0  0  0  0  0  0
  181.3269  215.3117  252.8554 N   0  0  0  0  0  0
  182.4518  215.2295  251.9287 C   0  0  1  0  0  0
  183.6641  215.8132  252.6900 C   0  0  0  0  0  0
  184.8846  215.4747  252.2759 N   0  0  0  0  0  0
  186.1236  215.6956  253.0095 C   0  0  1  0  0  0
  186.9973  214.4845  252.6932 C   0  0  0  0  0  0
  187.6856  213.9436  253.7024 N   0  0  0  0  0  0
  188.4363  212.6980  253.5734 C   0  0  1  0  0  0
  189.8957  212.9719  253.1910 C   0  0  0  0  0  0
  190.4390  212.1481  252.2854 N   0  0  0  0  0  0
  191.8550  212.1961  251.9036 C   0  0  1  0  0  0
  192.7634  211.4127  252.8751 C   0  0  0  0  0  0
  192.1716  210.4942  253.6465 N   0  0  0  0  0  0
  192.8323  209.4140  254.3686 C   0  0  1  0  0  0
  191.9183  209.0249  255.5396 C   0  0  0  0  0  0
  192.5096  208.3878  256.5628 N   0  0  0  0  0  0
  179.0338  215.2405  253.6795 C   0  0  0  0  0  0
  179.6721  214.8100  251.4189 O   0  0  0  0  0  0
  182.6623  213.7901  251.3738 C   0  0  0  0  0  0
  183.7604  213.7223  249.9213 S   0  0  0  0  0  0
  183.4701  216.5429  253.6654 O   0  0  0  0  0  0
  186.7871  217.0043  252.5558 C   0  0  0  0  0  0
  186.9906  214.0432  251.5442 O   0  0  0  0  0  0
  188.3058  211.7940  254.8256 C   0  0  0  0  0  0
  190.5064  213.8832  253.7480 O   0  0  0  0  0  0
  191.9879  211.6715  250.4518 C   0  0  0  0  0  0
  191.9587  208.0839  257.8932 C   0  0  1  0  0  0
  192.0717  209.3016  258.8246 C   0  0  0  0  0  0
  191.9768  209.0525  260.1347 N   0  0  0  0  0  0
  191.7990  210.0717  261.1748 C   0  0  1  0  0  0
  190.9028  209.4688  262.2767 C   0  0  0  0  0  0
  193.9770  211.5947  252.8411 O   0  0  0  0  0  0
  190.7198  209.3025  255.4693 O   0  0  0  0  0  0
  190.5023  207.5674  257.8406 C   0  0  0  0  0  0
  192.2471  210.4247  258.3549 O   0  0  0  0  0  0
  189.5890  209.5651  262.1394 N   0  0  0  0  0  0
  191.3938  208.8995  263.2445 O   0  0  0  0  0  0
  193.1600  210.5827  261.7326 C   0  0  0  0  0  0
  194.0079  211.3892  260.7295 C   0  0  0  0  0  0
  193.0861  208.2675  253.3529 C   0  0  0  0  0  0
  193.4936  206.8858  253.8981 C   0  0  0  0  0  0
  193.6660  205.8775  252.7510 C   0  0  0  0  0  0
  194.1086  204.5550  253.2210 N   0  0  0  0  0  0
  195.3441  204.0226  253.1699 C   0  0  0  0  0  0
  196.4107  204.6997  252.7160 N   0  0  0  0  0  0
  195.5141  202.7594  253.5800 N   0  3  0  0  0  0
  195.2333  212.0784  261.3604 C   0  0  0  0  0  0
  195.8573  213.0234  260.4167 N   0  0  0  0  0  0
  196.9768  213.7535  260.5931 C   0  0  0  0  0  0
  197.3603  214.5982  259.6286 N   0  3  0  0  0  0
  197.7257  213.6741  261.7021 N   0  0  0  0  0  0
  191.9363  210.1357  250.3046 C   0  0  0  0  0  0
  191.7381  209.6462  248.8643 C   0  0  0  0  0  0
  191.9053  208.1876  248.7949 N   0  0  0  0  0  0
  193.0340  207.4946  248.5561 C   0  0  0  0  0  0
  194.1902  208.0962  248.2365 N   0  0  0  0  0  0
  192.9943  206.1612  248.6598 N   0  3  0  0  0  0
  188.7387  212.4503  256.1349 C   0  0  0  0  0  0
  187.7998  213.0990  256.9426 C   0  0  0  0  0  0
  188.1725  213.5868  258.2001 C   0  0  0  0  0  0
  189.5038  213.4851  258.6258 C   0  0  0  0  0  0
  190.4450  212.8803  257.7988 C   0  0  0  0  0  0
  190.0644  212.3503  256.5681 C   0  0  0  0  0  0
  187.1761  214.1275  259.0652 N   0  0  0  0  0  0
  186.4811  215.2550  258.9067 C   0  0  0  0  0  0
  185.5772  215.5455  259.8156 N   0  3  0  0  0  0
  186.6449  216.1094  257.9073 N   0  0  0  0  0  0
  189.8973  213.9522  259.8360 F   0  0  0  0  0  0
  181.6049  215.6518  253.7686 H   0  0  0  0  0  0
  182.2388  215.9026  251.0964 H   0  0  0  0  0  0
  184.9925  214.8499  251.4791 H   0  0  0  0  0  0
  185.9233  215.7303  254.0828 H   0  0  0  0  0  0
  187.7506  214.4072  254.5947 H   0  0  0  0  0  0
  188.0048  212.1441  252.7462 H   0  0  0  0  0  0
  189.8567  211.4576  251.8205 H   0  0  0  0  0  0
  192.1822  213.2385  251.9152 H   0  0  0  0  0  0
  191.1636  210.4536  253.7095 H   0  0  0  0  0  0
  193.7801  209.7720  254.7769 H   0  0  0  0  0  0
  193.5067  208.2611  256.4957 H   0  0  0  0  0  0
  179.3288  216.0115  254.3905 H   0  0  0  0  0  0
  178.9316  214.2937  254.2090 H   0  0  0  0  0  0
  178.0568  215.5038  253.2738 H   0  0  0  0  0  0
  183.0478  213.1397  252.1556 H   0  0  0  0  0  0
  181.7165  213.3482  251.0599 H   0  0  0  0  0  0
  182.8781  214.2333  249.0524 H   0  0  0  0  0  0
  187.7248  217.1712  253.0871 H   0  0  0  0  0  0
  187.0123  216.9894  251.4884 H   0  0  0  0  0  0
  186.1415  217.8608  252.7513 H   0  0  0  0  0  0
  187.2682  211.4727  254.9242 H   0  0  0  0  0  0
  188.8593  210.8636  254.6883 H   0  0  0  0  0  0
  191.2362  212.1441  249.8178 H   0  0  0  0  0  0
  192.9518  212.0042  250.0618 H   0  0  0  0  0  0
  192.5870  207.2907  258.3010 H   0  0  0  0  0  0
  191.8397  208.1017  260.4499 H   0  0  0  0  0  0
  191.2590  210.9239  260.7552 H   0  0  0  0  0  0
  190.2313  207.0485  258.7602 H   0  0  0  0  0  0
  189.7907  208.3864  257.7160 H   0  0  0  0  0  0
  190.3373  206.8765  257.0152 H   0  0  0  0  0  0
  189.1559  209.9971  261.3309 H   0  0  0  0  0  0
  189.0126  209.1604  262.8572 H   0  0  0  0  0  0
  192.9433  211.2237  262.5892 H   0  0  0  0  0  0
  193.7365  209.7471  262.1333 H   0  0  0  0  0  0
  194.3756  210.6700  259.9963 H   0  0  0  0  0  0
  193.3963  212.0978  260.1675 H   0  0  0  0  0  0
  192.1760  208.1194  252.7668 H   0  0  0  0  0  0
  193.8486  208.6005  252.6454 H   0  0  0  0  0  0
  194.3782  206.9242  254.5359 H   0  0  0  0  0  0
  192.6711  206.5280  254.5200 H   0  0  0  0  0  0
  192.6799  205.6922  252.3233 H   0  0  0  0  0  0
  194.2642  206.2701  251.9276 H   0  0  0  0  0  0
  193.3634  203.9710  253.5720 H   0  0  0  0  0  0
  197.3131  204.2440  252.6583 H   0  0  0  0  0  0
  196.3458  205.6764  252.4414 H   0  0  0  0  0  0
  196.4257  202.3217  253.4894 H   0  0  0  0  0  0
  194.9992  212.5419  262.3186 H   0  0  0  0  0  0
  195.9938  211.3206  261.5530 H   0  0  0  0  0  0
  195.3636  213.1326  259.5416 H   0  0  0  0  0  0
  198.2274  215.1114  259.7128 H   0  0  0  0  0  0
  198.5674  214.2282  261.7885 H   0  0  0  0  0  0
  197.4299  213.1344  262.5053 H   0  0  0  0  0  0
  192.8009  209.6491  250.7589 H   0  0  0  0  0  0
  191.0727  209.7960  250.8779 H   0  0  0  0  0  0
  190.6912  209.7943  248.5964 H   0  0  0  0  0  0
  192.3212  210.2036  248.1310 H   0  0  0  0  0  0
  191.0832  207.6492  249.0632 H   0  0  0  0  0  0
  195.0286  207.5605  248.0677 H   0  0  0  0  0  0
  194.2404  209.1036  248.1908 H   0  0  0  0  0  0
  193.8147  205.5935  248.5100 H   0  0  0  0  0  0
  186.7662  213.1478  256.6249 H   0  0  0  0  0  0
  191.4673  212.7852  258.1316 H   0  0  0  0  0  0
  190.8069  211.8458  255.9675 H   0  0  0  0  0  0
  186.9232  213.5720  259.8737 H   0  0  0  0  0  0
  184.8261  216.1728  259.5602 H   0  0  0  0  0  0
  186.0609  216.9281  257.8393 H   0  0  0  0  0  0
  187.3721  215.9421  257.2302 H   0  0  0  0  0  0
  196.8212  214.6955  258.7803 H   0  0  0  0  0  0
  194.7442  202.2112  253.9344 H   0  0  0  0  0  0
  192.1431  205.7169  248.9902 H   0  0  0  0  0  0
  185.2937  214.7712  260.4072 H   0  0  0  0  0  0
  1  2  1  0  0  0
  1 18  1  0  0  0
  1 19  2  0  0  0
  2  3  1  0  0  0
  2 70  1  0  0  0
  3  4  1  0  0  0
  3 20  1  0  0  0
  3 71  1  0  0  0
  4  5  1  0  0  0
  4 22  2  0  0  0
  5  6  1  0  0  0
  5 72  1  0  0  0
  6  7  1  0  0  0
  6 23  1  0  0  0
  6 73  1  0  0  0
  7  8  1  0  0  0
  7 24  2  0  0  0
  8  9  1  0  0  0
  8 74  1  0  0  0
  9 10  1  0  0  0
  9 25  1  0  0  0
  9 75  1  0  0  0
 10 11  1  0  0  0
 10 26  2  0  0  0
 11 12  1  0  0  0
 11 76  1  0  0  0
 12 13  1  0  0  0
 12 27  1  0  0  0
 12 77  1  0  0  0
 13 14  1  0  0  0
 13 33  2  0  0  0
 14 15  1  0  0  0
 14 78  1  0  0  0
 15 16  1  0  0  0
 15 41  1  0  0  0
 15 79  1  0  0  0
 16 17  1  0  0  0
 16 34  2  0  0  0
 17 28  1  0  0  0
 17 80  1  0  0  0
 18 81  1  0  0  0
 18 82  1  0  0  0
 18 83  1  0  0  0
 20 21  1  0  0  0
 20 84  1  0  0  0
 20 85  1  0  0  0
 21 86  1  0  0  0
 23 87  1  0  0  0
 23 88  1  0  0  0
 23 89  1  0  0  0
 25 59  1  0  0  0
 25 90  1  0  0  0
 25 91  1  0  0  0
 27 53  1  0  0  0
 27 92  1  0  0  0
 27 93  1  0  0  0
 28 29  1  0  0  0
 28 35  1  0  0  0
 28 94  1  0  0  0
 29 30  1  0  0  0
 29 36  2  0  0  0
 30 31  1  0  0  0
 30 95  1  0  0  0
 31 32  1  0  0  0
 31 39  1  0  0  0
 31 96  1  0  0  0
 32 37  1  0  0  0
 32 38  2  0  0  0
 35 97  1  0  0  0
 35 98  1  0  0  0
 35 99  1  0  0  0
 37100  1  0  0  0
 37101  1  0  0  0
 39 40  1  0  0  0
 39102  1  0  0  0
 39103  1  0  0  0
 40 48  1  0  0  0
 40104  1  0  0  0
 40105  1  0  0  0
 41 42  1  0  0  0
 41106  1  0  0  0
 41107  1  0  0  0
 42 43  1  0  0  0
 42108  1  0  0  0
 42109  1  0  0  0
 43 44  1  0  0  0
 43110  1  0  0  0
 43111  1  0  0  0
 44 45  1  0  0  0
 44112  1  0  0  0
 45 46  1  0  0  0
 45 47  2  0  0  0
 46113  1  0  0  0
 46114  1  0  0  0
 47115  1  0  0  0
 47138  1  0  0  0
 48 49  1  0  0  0
 48116  1  0  0  0
 48117  1  0  0  0
 49 50  1  0  0  0
 49118  1  0  0  0
 50 51  2  0  0  0
 50 52  1  0  0  0
 51119  1  0  0  0
 51137  1  0  0  0
 52120  1  0  0  0
 52121  1  0  0  0
 53 54  1  0  0  0
 53122  1  0  0  0
 53123  1  0  0  0
 54 55  1  0  0  0
 54124  1  0  0  0
 54125  1  0  0  0
 55 56  1  0  0  0
 55126  1  0  0  0
 56 57  1  0  0  0
 56 58  2  0  0  0
 57127  1  0  0  0
 57128  1  0  0  0
 58129  1  0  0  0
 58139  1  0  0  0
 59 60  2  0  0  0
 59 64  1  0  0  0
 60 61  1  0  0  0
 60130  1  0  0  0
 61 62  2  0  0  0
 61 65  1  0  0  0
 62 63  1  0  0  0
 62 69  1  0  0  0
 63 64  2  0  0  0
 63131  1  0  0  0
 64132  1  0  0  0
 65 66  1  0  0  0
 65133  1  0  0  0
 66 67  2  0  0  0
 66 68  1  0  0  0
 67134  1  0  0  0
 67140  1  0  0  0
 68135  1  0  0  0
 68136  1  0  0  0
M  CHG  4  47   1  51   1  58   1  67   1
M  END
> <s_m_entry_id>
56

> <s_m_entry_name>
STS005-ligand-20230714.43

> <s_m_Source_Path>
D:\xubinbin\STS005

> <s_m_Source_File>
prime_mmgbsa_all-20230714-out.maegz

> <i_m_Source_File_Index>
56

> <s_psp_Prime_MMGBSA_Input_Structure_Hash>
86f885524947f8658027e43bb542ac207c8ce5b48beb692265960a25

> <i_psp_number_heavy_atoms>
69

> <b_psp_distorted_structure>
1

> <i_psp_model_num>
0

> <r_psp_Prime_Coulomb>
-43224.7838478725

> <r_psp_Prime_Covalent>
7581.67872278312

> <r_psp_Prime_vdW>
-6875.45737189072

> <r_psp_Prime_Lipo>
-3894.55038832659

> <r_psp_Prime_Solv_GB>
-13065.833526259

> <r_psp_Prime_Energy>
-60562.5679246697

> <s_psp_Prime_Energy_Force_Field>
S-OPLS

> <s_psp_Prime_Energy_Solvent_Model>
VSGB2.1

> <r_psp_Prime_Bond_Covalent>
955.317303699454

> <r_psp_Prime_Bond_SGB>
111500.39517169

> <r_psp_Prime_Angle_Covalent>
3207.9632144905

> <r_psp_Prime_Angle_SGB>
-44127.6483654534

> <r_psp_Prime_Torsion_Covalent>
3418.39820459316

> <r_psp_Prime_NB14_LJ>
7962.1997536438

> <r_psp_Prime_NB14_Lipo>
0

> <r_psp_Prime_NB14_Elec>
48402.7701520299

> <r_psp_Prime_NB14_SGB>
-41246.673084549

> <r_psp_Prime_NBShort_LJ>
-14072.5344432436

> <r_psp_Prime_NBShort_Lipo>
-3894.55038832659

> <r_psp_Prime_NBShort_Elec>
-95934.4095004482

> <r_psp_Prime_NBShort_SGB>
45219.2549666146

> <r_psp_Prime_NBLong_LJ>
-765.122682290962

> <r_psp_Prime_NBLong_Lipo>
0

> <r_psp_Prime_NBLong_Elec>
4306.85550054589

> <r_psp_Prime_NBLong_SGB>
-4123.73990122486

> <r_psp_Prime_Self_SGB>
-80287.4223133361

> <r_psp_Prime_Hbond>
-775.553304290762

> <r_psp_Prime_Packing>
-136.009250192214

> <r_psp_Prime_SelfCont>
-172.058958621051

> <i_lp_mmshare_version>
54117

> <s_epik_input>
W0NIM11DKD1PKVtOSF1bQ0BIXShbQ0gyXVtTSF0pQyg9TylbTkhdW0NASF0oW0NIM10pQyg9TylbTkhdW0NASF0oW0NIMl1jMVtjSF1jKGMoRilbY0hdW2NIXTEpW05IXS9DKD1OL1tIXSlbTkgyXSlDKD1PKVtOSF1bQ0BIXShbQ0gyXVtDSDJdW0NIMl1bTkhdL0MoW05IMl0pPU4vW0hdKUMoPU8pW05IXVtDQEhdKFtDSDJdW0NIMl1bQ0gyXVtOSF0vQyhbTkgyXSk9Ti9bSF0pQyg9TylbTkhdW0NASF0oW0NIM10pQyg9TylbTkhdW0NAQEhdKEMoPU8pW05IMl0pW0NIMl1bQ0gyXVtDSDJdW05IXS9DKD1OL1tIXSlbTkgyXQ==

> <s_epik_cmdline>
J2VwaWtfcHl0aG9uJywgJy1waCcsICc3LjAnLCAnLXRuJywgJzgnLCAnLW1hJywgJzUwMCcsICctaW1hZScsICc8aW5maWxlLm1hZT4nLCAnLW9tYWUnLCAnPG91dGZpbGUubWFlPic=

> <r_epik_Ionization_Penalty>
  0.0088

> <r_epik_Ionization_Penalty_Charging>
  0.0002

> <r_epik_Ionization_Penalty_Neutral>
  0.0086

> <r_epik_State_Penalty>
  0.0065

> <r_epik_Charging_Adjusted_Penalty>
0.00670213348264365

> <i_epik_Tot_Q>
4

> <i_epik_Tot_abs_Q>
4

> <s_epik_Chemistry_Notes>
This compound has an imine and may undergo hydrolysis.

> <i_f3d_flags>
0

> <s_lp_Force_Field>
S-OPLS

> <r_lp_Energy>
30.434707

> <b_lp_Chiralities_Consistent>
1

> <s_lp_Variant>
073-1

> <s_i_glide_gridfile>
glide-grid_D-site

> <i_i_glide_lignum>
85

> <i_i_glide_rotatable_bonds>
42

> <r_i_docking_score>
-6.22669812518809

> <r_i_glide_ligand_efficiency>
-0.0902420018143201

> <r_i_glide_ligand_efficiency_sa>
-0.370133519547358

> <r_i_glide_ligand_efficiency_ln>
-1.18963917140758

> <r_glide_XP_GScore>
-6.23319812518809

> <r_i_glide_gscore>
-6.23319812518809

> <r_i_glide_evdw>
-38.2509994506836

> <r_i_glide_ecoul>
-37.4082374572754

> <r_i_glide_energy>
-75.659236907959

> <r_i_glide_einternal>
24.6029052734375

> <r_i_glide_emodel>
-89.8979644775391

> <r_glide_XP_HBond>
-3.26

> <i_i_glide_confnum>
1

> <i_i_glide_posenum>
2

> <r_i_glide_eff_state_penalty>
0.0065

> <i_glide_XP_PoseRank>
1

> <s_psp_MMGBSA_moved_residues>


> <r_psp_MMGBSA_dG_Bind>
-69.7364968634865

> <r_psp_MMGBSA_dG_Bind_Coulomb>
-654.810487559276

> <r_psp_MMGBSA_dG_Bind_Covalent>
8.18707372004974

> <r_psp_MMGBSA_dG_Bind_Hbond>
-7.73056851586466

> <r_psp_MMGBSA_dG_Bind_Lipo>
-9.55419036457488

> <r_psp_MMGBSA_dG_Bind_Packing>
-0.000118667503784309

> <r_psp_MMGBSA_dG_Bind_SelfCont>
0

> <r_psp_MMGBSA_dG_Bind_Solv_GB>
656.976106249

> <r_psp_MMGBSA_dG_Bind_vdW>
-62.8043117253301

> <r_psp_Lig_Strain_Energy>
19.6989622977368

> <r_psp_Lig_Strain_Coulomb>
12.1193601306046

> <r_psp_Lig_Strain_Covalent>
8.18707372004475

> <r_psp_Lig_Strain_Hbond>
0

> <r_psp_Lig_Strain_Lipo>
1.68586938796342

> <r_psp_Lig_Strain_Packing>
0

> <r_psp_Lig_Strain_SelfCont>
0

> <r_psp_Lig_Strain_Solv_GB>
-10.4533324637492

> <r_psp_Lig_Strain_vdW>
8.15999152287322

> <r_psp_Ligand_Energy>
-285.958559648264

> <r_psp_Ligand_Coulomb>
-99.6817210681713

> <r_psp_Ligand_Covalent>
37.7394730652926

> <r_psp_Ligand_Hbond>
0

> <r_psp_Ligand_Lipo>
-7.94743590020907

> <r_psp_Ligand_Packing>
0

> <r_psp_Ligand_SelfCont>
0

> <r_psp_Ligand_Solv_GB>
-226.46541554456

> <r_psp_Ligand_vdW>
10.3965397993839

> <r_psp_Complex_Energy>
-60562.5679246697

> <r_psp_Complex_Coulomb>
-43224.7838478725

> <r_psp_Complex_Covalent>
7581.67872278312

> <r_psp_Complex_Hbond>
-775.553304290762

> <r_psp_Complex_Lipo>
-3894.55038832659

> <r_psp_Complex_Packing>
-136.009250192214

> <r_psp_Complex_SelfCont>
-172.058958621051

> <r_psp_Complex_Solv_GB>
-13065.833526259

> <r_psp_Complex_vdW>
-6875.45737189072

> <r_psp_Receptor_Energy>
-60206.872868158

> <r_psp_Receptor_Coulomb>
-42470.291639245

> <r_psp_Receptor_Covalent>
7535.75217599777

> <r_psp_Receptor_Hbond>
-767.822735774897

> <r_psp_Receptor_Lipo>
-3877.04876206181

> <r_psp_Receptor_Packing>
-136.00913152471

> <r_psp_Receptor_SelfCont>
-172.058958621051

> <r_psp_Receptor_Solv_GB>
-13496.3442169635

> <r_psp_Receptor_vdW>
-6823.04959996478

> <r_psp_MMGBSA_dG_Bind(NS)>
-89.4354591612209

> <r_psp_MMGBSA_dG_Bind(NS)_Coulomb>
-666.929847689877

> <r_psp_MMGBSA_dG_Bind(NS)_Covalent>
4.54747350886464e-12

> <r_psp_MMGBSA_dG_Bind(NS)_Hbond>
-7.73056851586466

> <r_psp_MMGBSA_dG_Bind(NS)_Lipo>
-11.2400597525384

> <r_psp_MMGBSA_dG_Bind(NS)_Packing>
-0.000118667503784309

> <r_psp_MMGBSA_dG_Bind(NS)_SelfCont>
0

> <r_psp_MMGBSA_dG_Bind(NS)_Solv_GB>
667.429438712748

> <r_psp_MMGBSA_dG_Bind(NS)_vdW>
-70.9643032482027

> <r_psp_Rec_Strain_Energy>
0

> <r_psp_Rec_Strain_Coulomb>
0

> <r_psp_Rec_Strain_Covalent>
0

> <r_psp_Rec_Strain_Hbond>
0

> <r_psp_Rec_Strain_Lipo>
0

> <r_psp_Rec_Strain_Packing>
0

> <r_psp_Rec_Strain_SelfCont>
0

> <r_psp_Rec_Strain_Solv_GB>
0

> <r_psp_Rec_Strain_vdW>
0

> <r_psp_Prime_MMGBSA_ligand_efficiency>
-1.01067386758676

> <r_psp_Prime_MMGBSA_ligand_efficiency_sa>
-1.51601080138014

> <r_psp_Prime_MMGBSA_ligand_efficiency_ln>
-13.3234768536397

> <Name>
73

> <s_m_subgroup_title>
prime_mmgbsa_all-20230714-out

> <s_m_subgroupid>
prime_mmgbsa_all-20230714-out

> <b_m_subgroup_collapsed>
0

$$$$
