STS005_prime_MMGBSA_result_33
                    3D
 Schrodinger Suite 2021-3.
143143  0  0  1  0            999 V2000
  181.0105  215.3813  251.9469 C   0  0  0  0  0  0
  182.2361  214.9794  252.2921 N   0  0  0  0  0  0
  183.4048  214.9087  251.4212 C   0  0  1  0  0  0
  184.6153  214.7512  252.3681 C   0  0  0  0  0  0
  185.8534  214.8829  251.8802 N   0  0  0  0  0  0
  187.0449  214.7879  252.7210 C   0  0  1  0  0  0
  188.2686  214.4869  251.8535 C   0  0  0  0  0  0
  189.2179  213.7556  252.4449 N   0  0  0  0  0  0
  190.5766  213.4909  251.9786 C   0  0  1  0  0  0
  191.1567  212.5023  253.0005 C   0  0  0  0  0  0
  190.5267  211.3241  253.1247 N   0  0  0  0  0  0
  190.8372  210.3472  254.1720 C   0  0  1  0  0  0
  190.3493  210.8427  255.5509 C   0  0  0  0  0  0
  190.9686  210.3014  256.6031 N   0  0  0  0  0  0
  190.4734  210.2762  257.9719 C   0  0  1  0  0  0
  190.8272  208.8915  258.5287 C   0  0  0  0  0  0
  189.9592  208.3380  259.3835 N   0  0  0  0  0  0
  179.9364  215.3558  253.0234 C   0  0  0  0  0  0
  180.7325  215.7595  250.8117 O   0  0  0  0  0  0
  183.2424  213.7746  250.3794 C   0  0  0  0  0  0
  184.5956  213.6701  249.1681 S   0  0  0  0  0  0
  184.4104  214.5471  253.5652 O   0  0  0  0  0  0
  187.2184  216.1050  253.5266 C   0  0  0  0  0  0
  188.3388  214.9647  250.7221 O   0  0  0  0  0  0
  190.6751  213.0192  250.4998 C   0  0  0  0  0  0
  192.0132  212.4122  250.0906 C   0  0  0  0  0  0
  192.1028  212.8541  253.7010 O   0  0  0  0  0  0
  190.2167  208.9673  253.8427 C   0  0  0  0  0  0
  190.1452  207.0269  259.9888 C   0  0  1  0  0  0
  189.3830  206.9770  261.3026 C   0  0  0  0  0  0
  190.0956  206.7406  262.4054 N   0  0  0  0  0  0
  189.5115  206.6451  263.7520 C   0  0  1  0  0  0
  190.1707  205.5622  264.6471 C   0  0  0  0  0  0
  189.4030  211.6321  255.6324 O   0  0  0  0  0  0
  191.8766  208.3564  258.1658 O   0  0  0  0  0  0
  189.5983  205.9588  259.0501 C   0  0  0  0  0  0
  188.1708  207.1668  261.2885 O   0  0  0  0  0  0
  191.1165  204.7732  264.1508 N   0  0  0  0  0  0
  189.7995  205.4208  265.8076 O   0  0  0  0  0  0
  189.4810  208.0433  264.4209 C   0  0  0  0  0  0
  188.5468  209.0731  263.7491 C   0  0  0  0  0  0
  191.0482  211.4688  258.7851 C   0  0  0  0  0  0
  191.1238  211.3011  260.3274 C   0  0  0  0  0  0
  190.9434  212.6042  261.1284 C   0  0  0  0  0  0
  189.5305  213.0292  261.1736 N   0  0  0  0  0  0
  189.0369  214.1778  261.6763 C   0  0  0  0  0  0
  189.8313  215.1238  262.2022 N   0  0  0  0  0  0
  187.7139  214.3837  261.6565 N   0  3  0  0  0  0
  188.5708  210.4498  264.4282 C   0  0  0  0  0  0
  187.4111  211.2720  264.0335 N   0  0  0  0  0  0
  186.7821  212.2013  264.7833 C   0  0  0  0  0  0
  185.7104  212.8265  264.2836 N   0  3  0  0  0  0
  187.1903  212.5246  266.0212 N   0  0  0  0  0  0
  188.4160  216.1782  254.5048 C   0  0  0  0  0  0
  187.3283  215.2679  256.5739 N   0  0  0  0  0  0
  188.4402  215.1099  255.6180 C   0  0  0  0  0  0
  187.0303  214.4471  257.5989 C   0  0  0  0  0  0
  185.9433  214.6984  258.3407 N   0  3  0  0  0  0
  187.7892  213.3773  257.8800 N   0  0  0  0  0  0
  192.0643  211.0854  249.6533 C   0  0  0  0  0  0
  193.2861  210.4998  249.3053 C   0  0  0  0  0  0
  194.4502  211.2712  249.3283 C   0  0  0  0  0  0
  194.4042  212.5976  249.7589 C   0  0  0  0  0  0
  193.1900  213.1650  250.1481 C   0  0  0  0  0  0
  193.3537  209.1322  248.8946 N   0  0  0  0  0  0
  192.8013  208.0677  249.4914 C   0  0  0  0  0  0
  192.1487  208.0958  250.6438 N   0  0  0  0  0  0
  192.8998  206.8902  248.9083 N   0  3  0  0  0  0
  190.8230  207.7711  254.6058 C   0  0  0  0  0  0
  182.4698  214.6968  253.2393 H   0  0  0  0  0  0
  183.5059  215.8653  250.9055 H   0  0  0  0  0  0
  186.0267  214.9981  250.8889 H   0  0  0  0  0  0
  186.9009  213.9474  253.4036 H   0  0  0  0  0  0
  189.0334  213.3829  253.3669 H   0  0  0  0  0  0
  191.1434  214.4184  252.0796 H   0  0  0  0  0  0
  189.7644  211.1002  252.4965 H   0  0  0  0  0  0
  191.9245  210.2439  254.1966 H   0  0  0  0  0  0
  191.7161  209.6345  256.4515 H   0  0  0  0  0  0
  189.3871  210.3430  257.9370 H   0  0  0  0  0  0
  189.1006  208.8144  259.6468 H   0  0  0  0  0  0
  180.3520  215.1649  254.0116 H   0  0  0  0  0  0
  179.2045  214.5800  252.7986 H   0  0  0  0  0  0
  179.4171  216.3132  253.0531 H   0  0  0  0  0  0
  183.1300  212.8255  250.8967 H   0  0  0  0  0  0
  182.3215  213.9141  249.8118 H   0  0  0  0  0  0
  184.2338  214.7458  248.4577 H   0  0  0  0  0  0
  187.3093  216.9335  252.8219 H   0  0  0  0  0  0
  186.3057  216.3079  254.0878 H   0  0  0  0  0  0
  189.8838  212.3084  250.2972 H   0  0  0  0  0  0
  190.4721  213.8489  249.8216 H   0  0  0  0  0  0
  189.1456  208.9909  254.0487 H   0  0  0  0  0  0
  190.3025  208.7761  252.7726 H   0  0  0  0  0  0
  191.2072  206.8496  260.1656 H   0  0  0  0  0  0
  191.0902  206.5828  262.3294 H   0  0  0  0  0  0
  188.4776  206.3087  263.6649 H   0  0  0  0  0  0
  189.7513  204.9594  259.4564 H   0  0  0  0  0  0
  188.5265  206.0816  258.8807 H   0  0  0  0  0  0
  190.0898  206.0229  258.0832 H   0  0  0  0  0  0
  191.4150  204.8187  263.1924 H   0  0  0  0  0  0
  191.4719  204.0284  264.7320 H   0  0  0  0  0  0
  189.1229  207.9031  265.4401 H   0  0  0  0  0  0
  190.4946  208.4361  264.5079 H   0  0  0  0  0  0
  188.9225  209.2336  262.7394 H   0  0  0  0  0  0
  187.5330  208.6821  263.6300 H   0  0  0  0  0  0
  192.0681  211.6614  258.4486 H   0  0  0  0  0  0
  190.4893  212.3644  258.5156 H   0  0  0  0  0  0
  190.3148  210.6401  260.6342 H   0  0  0  0  0  0
  192.0320  210.7797  260.6345 H   0  0  0  0  0  0
  191.3988  212.5429  262.1175 H   0  0  0  0  0  0
  191.4627  213.4029  260.5972 H   0  0  0  0  0  0
  188.8741  212.3469  260.8047 H   0  0  0  0  0  0
  189.4468  215.9793  262.5753 H   0  0  0  0  0  0
  190.8315  214.9905  262.2323 H   0  0  0  0  0  0
  187.3216  215.2410  262.0167 H   0  0  0  0  0  0
  188.7467  210.3804  265.4995 H   0  0  0  0  0  0
  189.4193  211.0049  264.0261 H   0  0  0  0  0  0
  187.0478  211.0848  263.1056 H   0  0  0  0  0  0
  185.2127  213.5184  264.8236 H   0  0  0  0  0  0
  186.6997  213.2205  266.5636 H   0  0  0  0  0  0
  188.0058  212.0843  266.4196 H   0  0  0  0  0  0
  189.3731  216.1957  253.9814 H   0  0  0  0  0  0
  188.3542  217.1583  254.9815 H   0  0  0  0  0  0
  186.7169  216.0541  256.4037 H   0  0  0  0  0  0
  188.2992  214.1230  255.1798 H   0  0  0  0  0  0
  189.4107  215.0775  256.1153 H   0  0  0  0  0  0
  185.5909  214.0257  259.0174 H   0  0  0  0  0  0
  187.5215  212.7204  258.6043 H   0  0  0  0  0  0
  188.5625  213.1307  257.2757 H   0  0  0  0  0  0
  191.1505  210.5071  249.6038 H   0  0  0  0  0  0
  195.4031  210.8489  249.0383 H   0  0  0  0  0  0
  195.3142  213.1802  249.7968 H   0  0  0  0  0  0
  193.1668  214.1909  250.4867 H   0  0  0  0  0  0
  193.9484  208.9195  248.1089 H   0  0  0  0  0  0
  191.4722  207.3646  250.8406 H   0  0  0  0  0  0
  192.1360  208.9499  251.1782 H   0  0  0  0  0  0
  192.2084  206.1859  249.1357 H   0  0  0  0  0  0
  190.3984  206.8320  254.2508 H   0  0  0  0  0  0
  191.9030  207.7092  254.4658 H   0  0  0  0  0  0
  190.6203  207.8106  255.6755 H   0  0  0  0  0  0
  185.3964  212.6393  263.3341 H   0  0  0  0  0  0
  187.0696  213.6770  261.3151 H   0  0  0  0  0  0
  185.3518  215.4956  258.1504 H   0  0  0  0  0  0
  193.6322  206.6939  248.2449 H   0  0  0  0  0  0
  1  2  1  0  0  0
  1 18  1  0  0  0
  1 19  2  0  0  0
  2  3  1  0  0  0
  2 70  1  0  0  0
  3  4  1  0  0  0
  3 20  1  0  0  0
  3 71  1  0  0  0
  4  5  1  0  0  0
  4 22  2  0  0  0
  5  6  1  0  0  0
  5 72  1  0  0  0
  6  7  1  0  0  0
  6 23  1  0  0  0
  6 73  1  0  0  0
  7  8  1  0  0  0
  7 24  2  0  0  0
  8  9  1  0  0  0
  8 74  1  0  0  0
  9 10  1  0  0  0
  9 25  1  0  0  0
  9 75  1  0  0  0
 10 11  1  0  0  0
 10 27  2  0  0  0
 11 12  1  0  0  0
 11 76  1  0  0  0
 12 13  1  0  0  0
 12 28  1  0  0  0
 12 77  1  0  0  0
 13 14  1  0  0  0
 13 34  2  0  0  0
 14 15  1  0  0  0
 14 78  1  0  0  0
 15 16  1  0  0  0
 15 42  1  0  0  0
 15 79  1  0  0  0
 16 17  1  0  0  0
 16 35  2  0  0  0
 17 29  1  0  0  0
 17 80  1  0  0  0
 18 81  1  0  0  0
 18 82  1  0  0  0
 18 83  1  0  0  0
 20 21  1  0  0  0
 20 84  1  0  0  0
 20 85  1  0  0  0
 21 86  1  0  0  0
 23 54  1  0  0  0
 23 87  1  0  0  0
 23 88  1  0  0  0
 25 26  1  0  0  0
 25 89  1  0  0  0
 25 90  1  0  0  0
 26 60  2  0  0  0
 26 64  1  0  0  0
 28 69  1  0  0  0
 28 91  1  0  0  0
 28 92  1  0  0  0
 29 30  1  0  0  0
 29 36  1  0  0  0
 29 93  1  0  0  0
 30 31  1  0  0  0
 30 37  2  0  0  0
 31 32  1  0  0  0
 31 94  1  0  0  0
 32 33  1  0  0  0
 32 40  1  0  0  0
 32 95  1  0  0  0
 33 38  1  0  0  0
 33 39  2  0  0  0
 36 96  1  0  0  0
 36 97  1  0  0  0
 36 98  1  0  0  0
 38 99  1  0  0  0
 38100  1  0  0  0
 40 41  1  0  0  0
 40101  1  0  0  0
 40102  1  0  0  0
 41 49  1  0  0  0
 41103  1  0  0  0
 41104  1  0  0  0
 42 43  1  0  0  0
 42105  1  0  0  0
 42106  1  0  0  0
 43 44  1  0  0  0
 43107  1  0  0  0
 43108  1  0  0  0
 44 45  1  0  0  0
 44109  1  0  0  0
 44110  1  0  0  0
 45 46  1  0  0  0
 45111  1  0  0  0
 46 47  1  0  0  0
 46 48  2  0  0  0
 47112  1  0  0  0
 47113  1  0  0  0
 48114  1  0  0  0
 48141  1  0  0  0
 49 50  1  0  0  0
 49115  1  0  0  0
 49116  1  0  0  0
 50 51  1  0  0  0
 50117  1  0  0  0
 51 52  2  0  0  0
 51 53  1  0  0  0
 52118  1  0  0  0
 52140  1  0  0  0
 53119  1  0  0  0
 53120  1  0  0  0
 54 56  1  0  0  0
 54121  1  0  0  0
 54122  1  0  0  0
 55 56  1  0  0  0
 55 57  1  0  0  0
 55123  1  0  0  0
 56124  1  0  0  0
 56125  1  0  0  0
 57 58  2  0  0  0
 57 59  1  0  0  0
 58126  1  0  0  0
 58142  1  0  0  0
 59127  1  0  0  0
 59128  1  0  0  0
 60 61  1  0  0  0
 60129  1  0  0  0
 61 62  2  0  0  0
 61 65  1  0  0  0
 62 63  1  0  0  0
 62130  1  0  0  0
 63 64  2  0  0  0
 63131  1  0  0  0
 64132  1  0  0  0
 65 66  1  0  0  0
 65133  1  0  0  0
 66 67  1  0  0  0
 66 68  2  0  0  0
 67134  1  0  0  0
 67135  1  0  0  0
 68136  1  0  0  0
 68143  1  0  0  0
 69137  1  0  0  0
 69138  1  0  0  0
 69139  1  0  0  0
M  CHG  4  48   1  52   1  58   1  68   1
M  END
> <s_m_entry_id>
31

> <s_m_entry_name>
STS005-ligand-20230714.32

> <s_m_Source_Path>
D:\xubinbin\STS005

> <s_m_Source_File>
prime_mmgbsa_all-20230714-out.maegz

> <i_m_Source_File_Index>
31

> <s_psp_Prime_MMGBSA_Input_Structure_Hash>
7ee3a4cc8001cc190d87e10370e242603f1fb8a78f36ddb39c76c721

> <i_psp_number_heavy_atoms>
69

> <b_psp_distorted_structure>
1

> <i_psp_model_num>
0

> <r_psp_Prime_Coulomb>
-43155.7266749413

> <r_psp_Prime_Covalent>
7575.15272435882

> <r_psp_Prime_vdW>
-6870.81505108772

> <r_psp_Prime_Lipo>
-3891.99171442684

> <r_psp_Prime_Solv_GB>
-13128.3065126328

> <r_psp_Prime_Energy>
-60555.9957131065

> <s_psp_Prime_Energy_Force_Field>
S-OPLS

> <s_psp_Prime_Energy_Solvent_Model>
VSGB2.1

> <r_psp_Prime_Bond_Covalent>
955.623956968335

> <r_psp_Prime_Bond_SGB>
111450.750357058

> <r_psp_Prime_Angle_Covalent>
3208.51354474597

> <r_psp_Prime_Angle_SGB>
-44112.3228852059

> <r_psp_Prime_Torsion_Covalent>
3411.01522264451

> <r_psp_Prime_NB14_LJ>
7963.13123498246

> <r_psp_Prime_NB14_Lipo>
0

> <r_psp_Prime_NB14_Elec>
48382.8632209744

> <r_psp_Prime_NB14_SGB>
-41201.7620477234

> <r_psp_Prime_NBShort_LJ>
-14068.7913444173

> <r_psp_Prime_NBShort_Lipo>
-3891.99171442684

> <r_psp_Prime_NBShort_Elec>
-95930.094681817

> <r_psp_Prime_NBShort_SGB>
45197.1359789418

> <r_psp_Prime_NBLong_LJ>
-765.154941652905

> <r_psp_Prime_NBLong_Lipo>
0

> <r_psp_Prime_NBLong_Elec>
4391.50478590129

> <r_psp_Prime_NBLong_SGB>
-4207.39980086979

> <r_psp_Prime_Self_SGB>
-80254.7081148338

> <r_psp_Prime_Hbond>
-776.234440705811

> <r_psp_Prime_Packing>
-136.01508504987

> <r_psp_Prime_SelfCont>
-172.058958621051

> <i_lp_mmshare_version>
54117

> <s_epik_input>
W0hdXE49QyhbTkgyXSlcW05IXVtDSDJdW0NIMl1bQ0gyXVtDQEBIXShbTkhdQyg9TylbQ0BASF0oW0NIMl1bU0hdKVtOSF1DKD1PKVtDSDNdKUMoPU8pW05IXVtDQEhdKFtDSDJdYzFbY0hdYyhbY0hdW2NIXVtjSF0xKVtOSF0vQyhbTkgyXSk9Ti9bSF0pQyg9TylbTkhdW0NASF0oW0NIMl1bQ0gzXSlDKD1PKVtOSF1bQ0BIXShbQ0gyXVtDSDJdW0NIMl1bTkhdL0MoW05IMl0pPU4vW0hdKUMoPU8pW05IXVtDQEhdKFtDSDNdKUMoPU8pW05IXVtDQEBIXShDKD1PKVtOSDJdKVtDSDJdW0NIMl1bQ0gyXVtOSF0vQyg9Ti9bSF0pW05IMl0=

> <s_epik_cmdline>
J2VwaWtfcHl0aG9uJywgJy1waCcsICc3LjAnLCAnLXRuJywgJzgnLCAnLW1hJywgJzUwMCcsICctaW1hZScsICc8aW5maWxlLm1hZT4nLCAnLW9tYWUnLCAnPG91dGZpbGUubWFlPic=

> <r_epik_Ionization_Penalty>
  0.0087

> <r_epik_Ionization_Penalty_Charging>
  0.0001

> <r_epik_Ionization_Penalty_Neutral>
  0.0087

> <r_epik_State_Penalty>
  0.0065

> <r_epik_Charging_Adjusted_Penalty>
0.00661178599936471

> <i_epik_Tot_Q>
4

> <i_epik_Tot_abs_Q>
4

> <s_epik_Chemistry_Notes>
This compound has an imine and may undergo hydrolysis.

> <i_f3d_flags>
0

> <s_lp_Force_Field>
S-OPLS

> <r_lp_Energy>
27.784112

> <b_lp_Chiralities_Consistent>
1

> <s_lp_Variant>
051-1

> <s_i_glide_gridfile>
glide-grid_D-site

> <i_i_glide_lignum>
62

> <i_i_glide_rotatable_bonds>
43

> <r_i_docking_score>
-7.09725366640684

> <r_i_glide_ligand_efficiency>
-0.102858748788505

> <r_i_glide_ligand_efficiency_sa>
-0.421881939007314

> <r_i_glide_ligand_efficiency_ln>
-1.35596279139011

> <r_glide_XP_GScore>
-7.10375366640684

> <r_i_glide_gscore>
-7.10375366640684

> <r_i_glide_evdw>
-45.4194107055664

> <r_i_glide_ecoul>
-36.659595489502

> <r_i_glide_energy>
-82.0790061950684

> <r_i_glide_einternal>
27.2582397460938

> <r_i_glide_emodel>
-106.262011320638

> <r_glide_XP_HBond>
-2.18230574818937

> <i_i_glide_confnum>
1

> <i_i_glide_posenum>
3

> <r_i_glide_eff_state_penalty>
0.0065

> <i_glide_XP_PoseRank>
1

> <s_psp_MMGBSA_moved_residues>


> <r_psp_MMGBSA_dG_Bind>
-71.6973488946242

> <r_psp_MMGBSA_dG_Bind_Coulomb>
-630.930094722513

> <r_psp_MMGBSA_dG_Bind_Covalent>
7.77629896500457

> <r_psp_MMGBSA_dG_Bind_Hbond>
-8.4117049309134

> <r_psp_MMGBSA_dG_Bind_Lipo>
-8.4740250690329

> <r_psp_MMGBSA_dG_Bind_Packing>
-0.00595352515995273

> <r_psp_MMGBSA_dG_Bind_SelfCont>
0

> <r_psp_MMGBSA_dG_Bind_Solv_GB>
627.094345227284

> <r_psp_MMGBSA_dG_Bind_vdW>
-58.7462148393206

> <r_psp_Lig_Strain_Energy>
16.8688151287797

> <r_psp_Lig_Strain_Coulomb>
-1.61183994992803

> <r_psp_Lig_Strain_Covalent>
7.77629896500599

> <r_psp_Lig_Strain_Hbond>
0

> <r_psp_Lig_Strain_Lipo>
1.24072337026651

> <r_psp_Lig_Strain_Packing>
0

> <r_psp_Lig_Strain_SelfCont>
0

> <r_psp_Lig_Strain_Solv_GB>
1.51138129421855

> <r_psp_Lig_Strain_vdW>
7.95225144921677

> <r_psp_Ligand_Energy>
-277.42549605392

> <r_psp_Ligand_Coulomb>
-54.5049409737836

> <r_psp_Ligand_Covalent>
31.6242493960392

> <r_psp_Ligand_Hbond>
0

> <r_psp_Ligand_Lipo>
-6.46892729599757

> <r_psp_Ligand_Packing>
0

> <r_psp_Ligand_SelfCont>
0

> <r_psp_Ligand_Solv_GB>
-259.056640896561

> <r_psp_Ligand_vdW>
10.9807637163833

> <r_psp_Complex_Energy>
-60555.9957131065

> <r_psp_Complex_Coulomb>
-43155.7266749413

> <r_psp_Complex_Covalent>
7575.15272435882

> <r_psp_Complex_Hbond>
-776.234440705811

> <r_psp_Complex_Lipo>
-3891.99171442684

> <r_psp_Complex_Packing>
-136.01508504987

> <r_psp_Complex_SelfCont>
-172.058958621051

> <r_psp_Complex_Solv_GB>
-13128.3065126328

> <r_psp_Complex_vdW>
-6870.81505108772

> <r_psp_Receptor_Energy>
-60206.872868158

> <r_psp_Receptor_Coulomb>
-42470.291639245

> <r_psp_Receptor_Covalent>
7535.75217599777

> <r_psp_Receptor_Hbond>
-767.822735774897

> <r_psp_Receptor_Lipo>
-3877.04876206181

> <r_psp_Receptor_Packing>
-136.00913152471

> <r_psp_Receptor_SelfCont>
-172.058958621051

> <r_psp_Receptor_Solv_GB>
-13496.3442169635

> <r_psp_Receptor_vdW>
-6823.04959996478

> <r_psp_MMGBSA_dG_Bind(NS)>
-88.566164023403

> <r_psp_MMGBSA_dG_Bind(NS)_Coulomb>
-629.318254772588

> <r_psp_MMGBSA_dG_Bind(NS)_Covalent>
-1.81898940354586e-12

> <r_psp_MMGBSA_dG_Bind(NS)_Hbond>
-8.4117049309134

> <r_psp_MMGBSA_dG_Bind(NS)_Lipo>
-9.71474843929946

> <r_psp_MMGBSA_dG_Bind(NS)_Packing>
-0.00595352515995273

> <r_psp_MMGBSA_dG_Bind(NS)_SelfCont>
0

> <r_psp_MMGBSA_dG_Bind(NS)_Solv_GB>
625.582963933066

> <r_psp_MMGBSA_dG_Bind(NS)_vdW>
-66.6984662885379

> <r_psp_Rec_Strain_Energy>
0

> <r_psp_Rec_Strain_Coulomb>
0

> <r_psp_Rec_Strain_Covalent>
0

> <r_psp_Rec_Strain_Hbond>
0

> <r_psp_Rec_Strain_Lipo>
0

> <r_psp_Rec_Strain_Packing>
0

> <r_psp_Rec_Strain_SelfCont>
0

> <r_psp_Rec_Strain_Solv_GB>
0

> <r_psp_Rec_Strain_vdW>
0

> <r_psp_Prime_MMGBSA_ligand_efficiency>
-1.03909201296557

> <r_psp_Prime_MMGBSA_ligand_efficiency_sa>
-1.55863801944835

> <r_psp_Prime_MMGBSA_ligand_efficiency_ln>
-13.6981066074315

> <Name>
51

> <s_m_subgroup_title>
prime_mmgbsa_all-20230714-out

> <s_m_subgroupid>
prime_mmgbsa_all-20230714-out

> <b_m_subgroup_collapsed>
0

$$$$
