093
                    3D
 Schrodinger Suite 2021-3.
143143  0  0  1  0            999 V2000
  195.1583  214.2867  253.0292 C   0  0  0  0  0  0
  194.5939  215.4947  253.1386 N   0  0  0  0  0  0
  194.3966  216.4694  252.0627 C   0  0  1  0  0  0
  192.9910  217.0819  252.2188 C   0  0  0  0  0  0
  192.0203  216.2159  252.5257 N   0  0  0  0  0  0
  190.6101  216.5113  252.7752 C   0  0  1  0  0  0
  189.7875  215.2839  252.3691 C   0  0  0  0  0  0
  190.2512  214.1263  252.8317 N   0  0  0  0  0  0
  189.8429  212.7785  252.4876 C   0  0  1  0  0  0
  191.1258  211.9456  252.4120 C   0  0  0  0  0  0
  191.0669  210.7556  251.8057 N   0  0  0  0  0  0
  192.0776  209.7247  252.0139 C   0  0  1  0  0  0
  191.7619  209.0800  253.3724 C   0  0  0  0  0  0
  192.8091  208.8377  254.1714 N   0  0  0  0  0  0
  192.8356  208.6192  255.6203 C   0  0  1  0  0  0
  193.3045  209.9065  256.3193 C   0  0  0  0  0  0
  193.8288  209.7556  257.5294 N   0  0  0  0  0  0
  195.1471  213.4129  254.2761 C   0  0  0  0  0  0
  195.6653  213.8713  251.9911 O   0  0  0  0  0  0
  195.5845  217.4597  251.9944 C   0  0  0  0  0  0
  195.7960  218.3745  250.4338 S   0  5  0  0  0  0
  192.7937  218.2918  252.1329 O   0  0  0  0  0  0
  190.4162  216.9387  254.2491 C   0  0  0  0  0  0
  188.8092  215.3740  251.6324 O   0  0  0  0  0  0
  188.7789  212.2582  253.4850 C   0  0  0  0  0  0
  192.1627  212.3763  252.9269 O   0  0  0  0  0  0
  191.9975  208.6750  250.8882 C   0  0  0  0  0  0
  193.9879  210.7857  258.5362 C   0  0  1  0  0  0
  193.5292  210.1360  259.8468 C   0  0  0  0  0  0
  193.1510  210.9381  260.8462 N   0  0  0  0  0  0
  192.9196  210.4433  262.2026 C   0  0  1  0  0  0
  194.2490  210.3503  262.9720 C   0  0  0  0  0  0
  190.5902  208.8662  253.6800 O   0  0  0  0  0  0
  193.1676  211.0110  255.8007 O   0  0  0  0  0  0
  193.5237  208.9070  259.9514 O   0  0  0  0  0  0
  195.3788  210.7172  262.3745 N   0  0  0  0  0  0
  194.2638  209.9356  264.1204 O   0  0  0  0  0  0
  191.9126  211.3523  262.9463 C   0  0  0  0  0  0
  192.2627  212.8484  263.0898 C   0  0  0  0  0  0
  191.5510  207.9629  256.2146 C   0  0  0  0  0  0
  191.5302  207.7056  257.7340 C   0  0  0  0  0  0
  190.2591  206.9834  258.1941 C   0  0  0  0  0  0
  189.8301  207.4111  259.5268 N   0  0  0  0  0  0
  188.6086  207.1730  260.0200 C   0  0  0  0  0  0
  187.7210  206.4630  259.3144 N   0  0  0  0  0  0
  188.2714  207.6557  261.2176 N   0  3  0  0  0  0
  191.1873  213.5949  263.9014 C   0  0  0  0  0  0
  191.2164  215.0468  263.6582 N   0  0  0  0  0  0
  190.2910  215.8076  263.0483 C   0  0  0  0  0  0
  190.4701  217.1330  262.9663 N   0  3  0  0  0  0
  189.1885  215.2677  262.5136 N   0  0  0  0  0  0
  193.0987  207.5997  250.9914 C   0  0  0  0  0  0
  193.2608  206.7580  249.7200 C   0  0  0  0  0  0
  194.5997  206.1489  249.6656 N   0  0  0  0  0  0
  195.0706  205.3850  248.6694 C   0  0  0  0  0  0
  194.2979  205.0599  247.6260 N   0  0  0  0  0  0
  196.3357  204.9558  248.7150 N   0  3  0  0  0  0
  188.9737  212.5735  254.9610 C   0  0  0  0  0  0
  188.1124  213.4891  255.5987 C   0  0  0  0  0  0
  188.2595  213.7567  256.9730 C   0  0  0  0  0  0
  189.2943  213.1435  257.7125 C   0  0  0  0  0  0
  190.1495  212.2230  257.0757 C   0  0  0  0  0  0
  189.9835  211.9319  255.7076 C   0  0  0  0  0  0
  187.3311  214.6867  257.5674 N   0  0  0  0  0  0
  186.6155  214.4030  258.6748 C   0  0  0  0  0  0
  185.4755  215.0604  258.8940 N   0  3  0  0  0  0
  186.9655  213.4846  259.5778 N   0  0  0  0  0  0
  195.4279  211.3491  258.5089 C   0  0  0  0  0  0
  188.9711  217.3013  254.6255 C   0  0  0  0  0  0
  195.7643  212.0668  259.6878 O   0  0  0  0  0  0
  194.2190  215.7571  254.0378 H   0  0  0  0  0  0
  194.3755  215.9266  251.1151 H   0  0  0  0  0  0
  192.2881  215.2418  252.5024 H   0  0  0  0  0  0
  190.3052  217.3349  252.1258 H   0  0  0  0  0  0
  191.0607  214.1362  253.4363 H   0  0  0  0  0  0
  189.4097  212.7752  251.4852 H   0  0  0  0  0  0
  190.1712  210.4463  251.4296 H   0  0  0  0  0  0
  193.0731  210.1752  252.0237 H   0  0  0  0  0  0
  193.6977  209.1227  253.7873 H   0  0  0  0  0  0
  193.6403  207.8966  255.7642 H   0  0  0  0  0  0
  193.8797  208.8226  257.9189 H   0  0  0  0  0  0
  194.1634  213.4203  254.7467 H   0  0  0  0  0  0
  195.8853  213.7632  254.9970 H   0  0  0  0  0  0
  195.3797  212.3793  254.0185 H   0  0  0  0  0  0
  195.5111  218.1824  252.8086 H   0  0  0  0  0  0
  196.5165  216.9162  252.1561 H   0  0  0  0  0  0
  190.7636  216.1460  254.9135 H   0  0  0  0  0  0
  191.0498  217.8024  254.4554 H   0  0  0  0  0  0
  187.7978  212.6155  253.1697 H   0  0  0  0  0  0
  188.7314  211.1734  253.4248 H   0  0  0  0  0  0
  191.0141  208.2029  250.8753 H   0  0  0  0  0  0
  192.0933  209.1928  249.9334 H   0  0  0  0  0  0
  193.2956  211.6059  258.3349 H   0  0  0  0  0  0
  193.2704  211.9313  260.7169 H   0  0  0  0  0  0
  192.4966  209.4365  262.1732 H   0  0  0  0  0  0
  195.3879  211.1218  261.4426 H   0  0  0  0  0  0
  196.2384  210.5780  262.9049 H   0  0  0  0  0  0
  190.9485  211.2646  262.4438 H   0  0  0  0  0  0
  191.7519  210.9369  263.9434 H   0  0  0  0  0  0
  193.2263  212.9626  263.5886 H   0  0  0  0  0  0
  192.3665  213.3034  262.1045 H   0  0  0  0  0  0
  190.6987  208.6171  256.0338 H   0  0  0  0  0  0
  191.3469  207.0341  255.6810 H   0  0  0  0  0  0
  192.4053  207.1289  258.0359 H   0  0  0  0  0  0
  191.5737  208.6605  258.2537 H   0  0  0  0  0  0
  189.4488  207.1871  257.4923 H   0  0  0  0  0  0
  190.3878  205.9092  258.2379 H   0  0  0  0  0  0
  190.5234  207.8814  260.0931 H   0  0  0  0  0  0
  186.7889  206.2909  259.6776 H   0  0  0  0  0  0
  187.9610  206.0992  258.3996 H   0  0  0  0  0  0
  187.2905  207.7351  261.4512 H   0  0  0  0  0  0
  190.1965  213.2055  263.6706 H   0  0  0  0  0  0
  191.3400  213.4154  264.9667 H   0  0  0  0  0  0
  192.0351  215.5170  264.0310 H   0  0  0  0  0  0
  189.7882  217.7165  262.5046 H   0  0  0  0  0  0
  188.4909  215.8370  262.0572 H   0  0  0  0  0  0
  189.0330  214.2715  262.5623 H   0  0  0  0  0  0
  194.0485  208.0855  251.2203 H   0  0  0  0  0  0
  192.8850  206.9313  251.8271 H   0  0  0  0  0  0
  192.4836  205.9988  249.6560 H   0  0  0  0  0  0
  193.1569  207.3900  248.8378 H   0  0  0  0  0  0
  195.2079  206.3841  250.4419 H   0  0  0  0  0  0
  194.6444  204.5058  246.8567 H   0  0  0  0  0  0
  193.3441  205.3902  247.5959 H   0  0  0  0  0  0
  196.7457  204.4654  247.9336 H   0  0  0  0  0  0
  187.3266  213.9713  255.0347 H   0  0  0  0  0  0
  189.4430  213.3686  258.7579 H   0  0  0  0  0  0
  190.9357  211.7369  257.6333 H   0  0  0  0  0  0
  190.6396  211.2171  255.2308 H   0  0  0  0  0  0
  186.8922  215.3638  256.9623 H   0  0  0  0  0  0
  184.7865  214.6302  259.5074 H   0  0  0  0  0  0
  186.2648  213.2203  260.2749 H   0  0  0  0  0  0
  187.6782  212.7898  259.3903 H   0  0  0  0  0  0
  196.1546  210.5506  258.3668 H   0  0  0  0  0  0
  195.5375  212.0123  257.6489 H   0  0  0  0  0  0
  188.9146  217.6381  255.6610 H   0  0  0  0  0  0
  188.5910  218.1059  253.9952 H   0  0  0  0  0  0
  188.2989  216.4492  254.5219 H   0  0  0  0  0  0
  196.5371  212.5896  259.5007 H   0  0  0  0  0  0
  191.2752  217.6030  263.3685 H   0  0  0  0  0  0
  188.9264  208.2063  261.7518 H   0  0  0  0  0  0
  196.9258  205.2164  249.4946 H   0  0  0  0  0  0
  185.1388  215.8033  258.3011 H   0  0  0  0  0  0
  1  2  1  0  0  0
  1 18  1  0  0  0
  1 19  2  0  0  0
  2  3  1  0  0  0
  2 71  1  0  0  0
  3  4  1  0  0  0
  3 20  1  0  0  0
  3 72  1  0  0  0
  4  5  1  0  0  0
  4 22  2  0  0  0
  5  6  1  0  0  0
  5 73  1  0  0  0
  6  7  1  0  0  0
  6 23  1  0  0  0
  6 74  1  0  0  0
  7  8  1  0  0  0
  7 24  2  0  0  0
  8  9  1  0  0  0
  8 75  1  0  0  0
  9 10  1  0  0  0
  9 25  1  0  0  0
  9 76  1  0  0  0
 10 11  1  0  0  0
 10 26  2  0  0  0
 11 12  1  0  0  0
 11 77  1  0  0  0
 12 13  1  0  0  0
 12 27  1  0  0  0
 12 78  1  0  0  0
 13 14  1  0  0  0
 13 33  2  0  0  0
 14 15  1  0  0  0
 14 79  1  0  0  0
 15 16  1  0  0  0
 15 40  1  0  0  0
 15 80  1  0  0  0
 16 17  1  0  0  0
 16 34  2  0  0  0
 17 28  1  0  0  0
 17 81  1  0  0  0
 18 82  1  0  0  0
 18 83  1  0  0  0
 18 84  1  0  0  0
 20 21  1  0  0  0
 20 85  1  0  0  0
 20 86  1  0  0  0
 23 69  1  0  0  0
 23 87  1  0  0  0
 23 88  1  0  0  0
 25 58  1  0  0  0
 25 89  1  0  0  0
 25 90  1  0  0  0
 27 52  1  0  0  0
 27 91  1  0  0  0
 27 92  1  0  0  0
 28 29  1  0  0  0
 28 68  1  0  0  0
 28 93  1  0  0  0
 29 30  1  0  0  0
 29 35  2  0  0  0
 30 31  1  0  0  0
 30 94  1  0  0  0
 31 32  1  0  0  0
 31 38  1  0  0  0
 31 95  1  0  0  0
 32 36  1  0  0  0
 32 37  2  0  0  0
 36 96  1  0  0  0
 36 97  1  0  0  0
 38 39  1  0  0  0
 38 98  1  0  0  0
 38 99  1  0  0  0
 39 47  1  0  0  0
 39100  1  0  0  0
 39101  1  0  0  0
 40 41  1  0  0  0
 40102  1  0  0  0
 40103  1  0  0  0
 41 42  1  0  0  0
 41104  1  0  0  0
 41105  1  0  0  0
 42 43  1  0  0  0
 42106  1  0  0  0
 42107  1  0  0  0
 43 44  1  0  0  0
 43108  1  0  0  0
 44 45  1  0  0  0
 44 46  2  0  0  0
 45109  1  0  0  0
 45110  1  0  0  0
 46111  1  0  0  0
 46141  1  0  0  0
 47 48  1  0  0  0
 47112  1  0  0  0
 47113  1  0  0  0
 48 49  1  0  0  0
 48114  1  0  0  0
 49 50  2  0  0  0
 49 51  1  0  0  0
 50115  1  0  0  0
 50140  1  0  0  0
 51116  1  0  0  0
 51117  1  0  0  0
 52 53  1  0  0  0
 52118  1  0  0  0
 52119  1  0  0  0
 53 54  1  0  0  0
 53120  1  0  0  0
 53121  1  0  0  0
 54 55  1  0  0  0
 54122  1  0  0  0
 55 56  1  0  0  0
 55 57  2  0  0  0
 56123  1  0  0  0
 56124  1  0  0  0
 57125  1  0  0  0
 57142  1  0  0  0
 58 59  2  0  0  0
 58 63  1  0  0  0
 59 60  1  0  0  0
 59126  1  0  0  0
 60 61  2  0  0  0
 60 64  1  0  0  0
 61 62  1  0  0  0
 61127  1  0  0  0
 62 63  2  0  0  0
 62128  1  0  0  0
 63129  1  0  0  0
 64 65  1  0  0  0
 64130  1  0  0  0
 65 66  2  0  0  0
 65 67  1  0  0  0
 66131  1  0  0  0
 66143  1  0  0  0
 67132  1  0  0  0
 67133  1  0  0  0
 68 70  1  0  0  0
 68134  1  0  0  0
 68135  1  0  0  0
 69136  1  0  0  0
 69137  1  0  0  0
 69138  1  0  0  0
 70139  1  0  0  0
M  CHG  5  21  -1  46   1  50   1  57   1  66   1
M  END
> <s_m_entry_id>
15

> <s_m_entry_name>
093.1

> <s_m_Source_Path>
D:\xubinbin\STS005\supp

> <s_m_Source_File>
093.sdf

> <i_m_Source_File_Index>
1

> <s_psp_Prime_MMGBSA_Input_Structure_Hash>
d39e51ed04a0ad92a008e4f8fc18a6c69d4bc5a1aa86298a4ba9418d

> <i_psp_number_heavy_atoms>
70

> <b_psp_distorted_structure>
1

> <i_psp_model_num>
0

> <r_psp_Prime_Coulomb>
-44051.8016876736

> <r_psp_Prime_Covalent>
9862.01494565355

> <r_psp_Prime_vdW>
-7421.08073093487

> <r_psp_Prime_Lipo>
-8649.34833912831

> <r_psp_Prime_Solv_GB>
-11971.6860500402

> <r_psp_Prime_Energy>
-63732.8272952706

> <s_psp_Prime_Energy_Force_Field>
OPLS_2005

> <s_psp_Prime_Energy_Solvent_Model>
VSGB2.0

> <r_psp_Prime_Bond_Covalent>
1002.732976615

> <r_psp_Prime_Bond_SGB>
109999.15789632

> <r_psp_Prime_Angle_Covalent>
2790.70335721052

> <r_psp_Prime_Angle_SGB>
-43099.1210043761

> <r_psp_Prime_Torsion_Covalent>
6068.57861182803

> <r_psp_Prime_NB14_LJ>
7638.53840489747

> <r_psp_Prime_NB14_Lipo>
0

> <r_psp_Prime_NB14_Elec>
47987.7857089658

> <r_psp_Prime_NB14_SGB>
-41245.5572205927

> <r_psp_Prime_NBShort_LJ>
-14308.197438862

> <r_psp_Prime_NBShort_Lipo>
-8649.34833912831

> <r_psp_Prime_NBShort_Elec>
-95779.4663580302

> <r_psp_Prime_NBShort_SGB>
45081.9236561541

> <r_psp_Prime_NBLong_LJ>
-751.421696970395

> <r_psp_Prime_NBLong_Lipo>
0

> <r_psp_Prime_NBLong_Elec>
3739.87896139086

> <r_psp_Prime_NBLong_SGB>
-3566.23040526709

> <r_psp_Prime_Self_SGB>
-79141.8589722788

> <r_psp_Prime_Hbond>
-506.140629828749

> <r_psp_Prime_Packing>
-47.5008006116973

> <r_psp_Prime_SelfCont>
-947.284002706662

> <i_lp_mmshare_version>
55137

> <s_epik_input>
W0NIM11DKD1PKVtOSF1bQ0BIXShbQ0gyXVtTSF0pQyg9TylbTkhdW0NASF0oW0NIMl1bQ0gzXSlDKD1PKVtOSF1bQ0BIXShbQ0gyXWMxW2NIXWMoW2NIXVtjSF1bY0hdMSlbTkhdL0MoPU4vW0hdKVtOSDJdKUMoPU8pW05IXVtDQEhdKFtDSDJdW0NIMl1bQ0gyXVtOSF0vQyhbTkgyXSk9Ti9bSF0pQyg9TylbTkhdW0NASF0oW0NIMl1bQ0gyXVtDSDJdW05IXS9DKFtOSDJdKT1OL1tIXSlDKD1PKVtOSF1bQ0BIXShbQ0gyXVtPSF0pQyg9TylbTkhdW0NAQEhdKEMoPU8pW05IMl0pW0NIMl1bQ0gyXVtDSDJdW05IXS9DKD1OL1tIXSlbTkgyXQ==

> <s_epik_cmdline>
J2VwaWtfcHl0aG9uJywgJy1waCcsICc3LjAnLCAnLXRuJywgJzgnLCAnLW1hJywgJzUwMCcsICctaW1hZScsICc8aW5maWxlLm1hZT4nLCAnLW9tYWUnLCAnPG91dGZpbGUubWFlPic=

> <r_epik_Ionization_Penalty>
  2.5150

> <r_epik_Ionization_Penalty_Charging>
  2.5150

> <r_epik_Ionization_Penalty_Neutral>
  0.0000

> <r_epik_State_Penalty>
  2.6808

> <r_epik_Charging_Adjusted_Penalty>
5.19580593726785

> <i_epik_Tot_Q>
3

> <i_epik_Tot_abs_Q>
5

> <s_epik_Chemistry_Notes>
This compound has an imine and may undergo hydrolysis.

> <i_f3d_flags>
0

> <s_lp_Force_Field>
OPLS_2005

> <r_lp_Energy>
33.7725

> <b_lp_Chiralities_Consistent>
1

> <s_lp_Variant>
093-1

> <s_i_glide_gridfile>
glide-grid_D-site

> <i_i_glide_lignum>
1

> <i_i_glide_rotatable_bonds>
44

> <r_i_docking_score>
-4.29224128440959

> <r_i_glide_ligand_efficiency>
-0.0613177326344228

> <r_i_glide_ligand_efficiency_sa>
-0.252707869765962

> <r_i_glide_ligand_efficiency_ln>
-0.817804167949216

> <r_glide_XP_GScore>
-6.97304128440959

> <r_i_glide_gscore>
-6.97304128440959

> <r_i_glide_evdw>
-32.6489753723145

> <r_i_glide_ecoul>
-24.9415893554688

> <r_i_glide_energy>
-57.5905647277832

> <r_i_glide_einternal>
18.524377822876

> <r_i_glide_emodel>
-77.057991027832

> <r_glide_XP_HBond>
-2.82927325389404

> <i_i_glide_confnum>
1

> <i_i_glide_posenum>
2

> <r_i_glide_eff_state_penalty>
2.6808

> <i_glide_XP_PoseRank>
1

> <s_psp_MMGBSA_moved_residues>


> <r_psp_MMGBSA_dG_Bind>
-77.58933812334

> <r_psp_MMGBSA_dG_Bind_Coulomb>
-254.524265926178

> <r_psp_MMGBSA_dG_Bind_Covalent>
8.57731947787761

> <r_psp_MMGBSA_dG_Bind_Hbond>
-14.7116962326742

> <r_psp_MMGBSA_dG_Bind_Lipo>
-14.2291263109055

> <r_psp_MMGBSA_dG_Bind_Packing>
-0.00256883280583509

> <r_psp_MMGBSA_dG_Bind_SelfCont>
0

> <r_psp_MMGBSA_dG_Bind_Solv_GB>
238.215137497249

> <r_psp_MMGBSA_dG_Bind_vdW>
-40.9141377958767

> <r_psp_Lig_Strain_Energy>
34.129408001868

> <r_psp_Lig_Strain_Coulomb>
52.3303141744784

> <r_psp_Lig_Strain_Covalent>
8.57731947787575

> <r_psp_Lig_Strain_Hbond>
0

> <r_psp_Lig_Strain_Lipo>
11.8815539531693

> <r_psp_Lig_Strain_Packing>
0

> <r_psp_Lig_Strain_SelfCont>
0

> <r_psp_Lig_Strain_Solv_GB>
-51.5289689620269

> <r_psp_Lig_Strain_vdW>
12.8691893583715

> <r_psp_Ligand_Energy>
-350.605471299507

> <r_psp_Ligand_Coulomb>
-177.510250508586

> <r_psp_Ligand_Covalent>
34.6223667972223

> <r_psp_Ligand_Hbond>
0

> <r_psp_Ligand_Lipo>
-28.7493260775452

> <r_psp_Ligand_Packing>
0

> <r_psp_Ligand_SelfCont>
0

> <r_psp_Ligand_Solv_GB>
-175.540077754096

> <r_psp_Ligand_vdW>
-3.42818375650263

> <r_psp_Complex_Energy>
-63732.8272952706

> <r_psp_Complex_Coulomb>
-44051.8016876736

> <r_psp_Complex_Covalent>
9862.01494565355

> <r_psp_Complex_Hbond>
-506.140629828749

> <r_psp_Complex_Lipo>
-8649.34833912831

> <r_psp_Complex_Packing>
-47.5008006116973

> <r_psp_Complex_SelfCont>
-947.284002706662

> <r_psp_Complex_Solv_GB>
-11971.6860500402

> <r_psp_Complex_vdW>
-7421.08073093487

> <r_psp_Receptor_Energy>
-63304.6324858477

> <r_psp_Receptor_Coulomb>
-43619.7671712388

> <r_psp_Receptor_Covalent>
9818.81525937845

> <r_psp_Receptor_Hbond>
-491.428933596075

> <r_psp_Receptor_Lipo>
-8606.36988673986

> <r_psp_Receptor_Packing>
-47.4982317788914

> <r_psp_Receptor_SelfCont>
-947.284002706662

> <r_psp_Receptor_Solv_GB>
-12034.3611097834

> <r_psp_Receptor_vdW>
-7376.73840938249

> <r_psp_MMGBSA_dG_Bind(NS)>
-111.718746125211

> <r_psp_MMGBSA_dG_Bind(NS)_Coulomb>
-306.854580100662

> <r_psp_MMGBSA_dG_Bind(NS)_Covalent>
1.81898940354586e-12

> <r_psp_MMGBSA_dG_Bind(NS)_Hbond>
-14.7116962326742

> <r_psp_MMGBSA_dG_Bind(NS)_Lipo>
-26.1106802640734

> <r_psp_MMGBSA_dG_Bind(NS)_Packing>
-0.00256883280583509

> <r_psp_MMGBSA_dG_Bind(NS)_SelfCont>
0

> <r_psp_MMGBSA_dG_Bind(NS)_Solv_GB>
289.744106459277

> <r_psp_MMGBSA_dG_Bind(NS)_vdW>
-53.7833271542477

> <r_psp_Rec_Strain_Energy>
0

> <r_psp_Rec_Strain_Coulomb>
0

> <r_psp_Rec_Strain_Covalent>
0

> <r_psp_Rec_Strain_Hbond>
0

> <r_psp_Rec_Strain_Lipo>
0

> <r_psp_Rec_Strain_Packing>
0

> <r_psp_Rec_Strain_SelfCont>
0

> <r_psp_Rec_Strain_Solv_GB>
0

> <r_psp_Rec_Strain_vdW>
0

> <r_psp_Prime_MMGBSA_ligand_efficiency>
-1.10841911604771

> <r_psp_Prime_MMGBSA_ligand_efficiency_sa>
-1.66262867407157

> <r_psp_Prime_MMGBSA_ligand_efficiency_ln>
-14.7831587045593

> <Name>
93

> <s_m_source_file>
ligprep_093.maegz

> <i_m_source_file_index>
1

> <s_m_job_name>
prime_mmgbsa_093

> <s_m_subgroup_title>
prime_mmgbsa_093-out1

> <s_m_subgroupid>
prime_mmgbsa_093-out1

> <b_m_subgroup_collapsed>
0

$$$$
