STS005_prime_MMGBSA_result_62
                    3D
 Schrodinger Suite 2021-3.
141141  0  0  1  0            999 V2000
  194.0021  221.0276  261.1316 C   0  0  0  0  0  0
  194.7023  220.1750  261.8891 N   0  0  0  0  0  0
  195.4406  218.9672  261.4959 C   0  0  1  0  0  0
  194.5500  217.7939  261.0228 C   0  0  0  0  0  0
  193.3421  218.0973  260.5393 N   0  0  0  0  0  0
  192.2912  217.1699  260.1422 C   0  0  1  0  0  0
  191.7017  216.4768  261.3865 C   0  0  0  0  0  0
  192.3105  215.3570  261.7963 N   0  0  0  0  0  0
  191.6548  214.3537  262.6492 C   0  0  1  0  0  0
  190.8226  213.3979  261.7807 C   0  0  0  0  0  0
  191.1631  213.2604  260.4873 N   0  0  0  0  0  0
  190.5409  212.2815  259.6123 C   0  0  1  0  0  0
  190.4378  212.7628  258.1585 C   0  0  0  0  0  0
  189.7142  211.9738  257.3557 N   0  0  0  0  0  0
  189.3084  212.2188  255.9766 C   0  0  1  0  0  0
  189.0886  210.8421  255.3228 C   0  0  0  0  0  0
  190.1871  210.1315  255.0575 N   0  0  0  0  0  0
  193.4413  222.2670  261.8108 C   0  0  0  0  0  0
  193.7843  220.8288  259.9390 O   0  0  0  0  0  0
  196.5813  219.2875  260.5017 C   0  0  0  0  0  0
  197.9093  218.0492  260.5826 S   0  0  0  0  0  0
  194.9579  216.6372  261.1307 O   0  0  0  0  0  0
  191.2568  217.9686  259.2943 C   0  0  0  0  0  0
  190.6938  216.9339  261.9194 O   0  0  0  0  0  0
  192.5925  213.5324  263.5905 C   0  0  0  0  0  0
  193.6041  212.6469  262.8712 C   0  0  0  0  0  0
  189.9045  212.7797  262.3117 O   0  0  0  0  0  0
  191.2239  210.9032  259.8072 C   0  0  0  0  0  0
  190.2213  208.8465  254.3656 C   0  0  1  0  0  0
  191.6630  208.6095  253.9165 C   0  0  0  0  0  0
  191.8423  207.8244  252.8497 N   0  0  0  0  0  0
  193.1587  207.3066  252.4567 C   0  0  1  0  0  0
  193.5687  206.0842  253.3126 C   0  0  0  0  0  0
  190.9514  213.8319  257.8254 O   0  0  0  0  0  0
  187.9487  210.4311  255.1134 O   0  0  0  0  0  0
  189.7361  207.7112  255.2883 C   0  0  0  0  0  0
  192.5786  209.1350  254.5539 O   0  0  0  0  0  0
  194.8632  205.8128  253.4025 N   0  0  0  0  0  0
  192.7322  205.3778  253.8692 O   0  0  0  0  0  0
  193.1587  206.9589  250.9526 C   0  0  0  0  0  0
  192.8929  208.1573  250.0233 C   0  0  0  0  0  0
  188.0617  213.1447  255.9760 C   0  0  0  0  0  0
  187.3822  213.4082  254.6144 C   0  0  0  0  0  0
  186.0970  214.2408  254.7738 C   0  0  0  0  0  0
  185.2671  214.2424  253.5568 N   0  0  0  0  0  0
  185.4387  214.9422  252.4175 C   0  0  0  0  0  0
  186.4657  215.7874  252.2391 N   0  0  0  0  0  0
  184.5508  214.7856  251.4274 N   0  3  0  0  0  0
  193.0312  207.7814  248.5363 C   0  0  0  0  0  0
  192.9780  208.9681  247.6615 N   0  0  0  0  0  0
  193.5714  209.1421  246.4616 C   0  0  0  0  0  0
  193.3990  210.3001  245.8126 N   0  3  0  0  0  0
  194.3331  208.2000  245.8836 N   0  0  0  0  0  0
  190.1599  217.1875  258.5234 C   0  0  0  0  0  0
  187.9660  215.9404  258.6890 N   0  0  0  0  0  0
  189.1593  216.4185  259.4053 C   0  0  0  0  0  0
  187.0996  215.0102  259.1421 C   0  0  0  0  0  0
  187.3319  214.2957  260.2537 N   0  3  0  0  0  0
  185.9560  214.7979  258.4812 N   0  0  0  0  0  0
  194.5645  213.2231  262.0426 C   0  0  0  0  0  0
  195.4469  212.4278  261.3152 C   0  0  0  0  0  0
  195.3853  211.0382  261.4350 C   0  0  0  0  0  0
  194.4619  210.4547  262.3056 C   0  0  0  0  0  0
  193.5703  211.2569  263.0193 C   0  0  0  0  0  0
  196.3537  213.0566  260.4140 N   0  0  0  0  0  0
  197.1729  214.0777  260.6875 C   0  0  0  0  0  0
  197.4682  214.5074  261.9039 N   0  0  0  0  0  0
  197.7435  214.7113  259.6869 N   0  3  0  0  0  0
  190.5147  209.8490  259.1804 O   0  0  0  0  0  0
  194.8361  220.4029  262.8694 H   0  0  0  0  0  0
  195.9037  218.6243  262.4226 H   0  0  0  0  0  0
  193.1362  219.0878  260.4564 H   0  0  0  0  0  0
  192.7397  216.4092  259.4998 H   0  0  0  0  0  0
  193.2187  215.1348  261.4144 H   0  0  0  0  0  0
  190.9470  214.8715  263.3014 H   0  0  0  0  0  0
  191.8831  213.8258  260.0644 H   0  0  0  0  0  0
  189.5137  212.2459  259.9445 H   0  0  0  0  0  0
  189.4226  211.0791  257.7377 H   0  0  0  0  0  0
  190.1198  212.7175  255.4426 H   0  0  0  0  0  0
  191.1109  210.4855  255.2779 H   0  0  0  0  0  0
  193.7356  222.3244  262.8589 H   0  0  0  0  0  0
  192.3524  222.2539  261.7672 H   0  0  0  0  0  0
  193.7954  223.1644  261.3047 H   0  0  0  0  0  0
  196.2021  219.3655  259.4814 H   0  0  0  0  0  0
  197.0306  220.2507  260.7449 H   0  0  0  0  0  0
  197.1162  217.0100  260.2805 H   0  0  0  0  0  0
  190.7727  218.7151  259.9274 H   0  0  0  0  0  0
  191.8075  218.5433  258.5475 H   0  0  0  0  0  0
  193.1371  214.1761  264.2754 H   0  0  0  0  0  0
  191.9828  212.9164  264.2556 H   0  0  0  0  0  0
  192.2450  210.9258  259.4226 H   0  0  0  0  0  0
  191.2972  210.6621  260.8691 H   0  0  0  0  0  0
  189.5908  208.8976  253.4788 H   0  0  0  0  0  0
  191.0392  207.3836  252.4125 H   0  0  0  0  0  0
  193.9063  208.0856  252.6231 H   0  0  0  0  0  0
  189.8048  206.7431  254.7908 H   0  0  0  0  0  0
  190.3311  207.6518  256.2007 H   0  0  0  0  0  0
  188.6931  207.8444  255.5776 H   0  0  0  0  0  0
  195.5551  206.3930  252.9471 H   0  0  0  0  0  0
  195.1355  205.0060  253.9365 H   0  0  0  0  0  0
  194.1258  206.5206  250.6987 H   0  0  0  0  0  0
  192.4212  206.1800  250.7614 H   0  0  0  0  0  0
  191.8562  208.4530  250.1981 H   0  0  0  0  0  0
  193.5053  209.0237  250.2814 H   0  0  0  0  0  0
  187.3151  212.7081  256.6387 H   0  0  0  0  0  0
  188.3361  214.0995  256.4237 H   0  0  0  0  0  0
  188.1000  213.9779  254.0229 H   0  0  0  0  0  0
  187.1822  212.5043  254.0377 H   0  0  0  0  0  0
  185.5176  213.9273  255.6420 H   0  0  0  0  0  0
  186.3678  215.2816  254.9522 H   0  0  0  0  0  0
  184.4923  213.5900  253.5954 H   0  0  0  0  0  0
  186.5758  216.2990  251.3758 H   0  0  0  0  0  0
  187.1520  215.9126  252.9684 H   0  0  0  0  0  0
  184.6506  215.2927  250.5599 H   0  0  0  0  0  0
  193.8899  207.1336  248.3605 H   0  0  0  0  0  0
  192.1495  207.2049  248.2518 H   0  0  0  0  0  0
  192.4056  209.7221  248.0144 H   0  0  0  0  0  0
  193.8425  210.4477  244.9129 H   0  0  0  0  0  0
  194.7650  208.3758  244.9843 H   0  0  0  0  0  0
  194.4872  207.3123  246.3387 H   0  0  0  0  0  0
  189.6410  217.8350  257.8148 H   0  0  0  0  0  0
  190.6924  216.4588  257.9098 H   0  0  0  0  0  0
  187.7471  216.4262  257.8310 H   0  0  0  0  0  0
  189.6612  215.5104  259.7330 H   0  0  0  0  0  0
  188.8699  216.9773  260.2946 H   0  0  0  0  0  0
  186.6433  213.6173  260.5790 H   0  0  0  0  0  0
  185.2674  214.1462  258.8568 H   0  0  0  0  0  0
  185.6978  215.3599  257.6850 H   0  0  0  0  0  0
  194.6286  214.2975  261.9675 H   0  0  0  0  0  0
  196.0497  210.4058  260.8703 H   0  0  0  0  0  0
  194.4246  209.3811  262.4213 H   0  0  0  0  0  0
  192.8420  210.7926  263.6696 H   0  0  0  0  0  0
  196.4305  212.6737  259.4840 H   0  0  0  0  0  0
  197.9356  215.3895  262.0490 H   0  0  0  0  0  0
  197.1926  213.9720  262.7173 H   0  0  0  0  0  0
  198.6473  215.1423  259.8317 H   0  0  0  0  0  0
  189.6802  209.7243  259.6598 H   0  0  0  0  0  0
  192.8348  211.0391  246.2064 H   0  0  0  0  0  0
  183.7601  214.1667  251.5342 H   0  0  0  0  0  0
  188.1817  214.4064  260.7867 H   0  0  0  0  0  0
  197.3345  214.6890  258.7653 H   0  0  0  0  0  0
  1  2  1  0  0  0
  1 18  1  0  0  0
  1 19  2  0  0  0
  2  3  1  0  0  0
  2 70  1  0  0  0
  3  4  1  0  0  0
  3 20  1  0  0  0
  3 71  1  0  0  0
  4  5  1  0  0  0
  4 22  2  0  0  0
  5  6  1  0  0  0
  5 72  1  0  0  0
  6  7  1  0  0  0
  6 23  1  0  0  0
  6 73  1  0  0  0
  7  8  1  0  0  0
  7 24  2  0  0  0
  8  9  1  0  0  0
  8 74  1  0  0  0
  9 10  1  0  0  0
  9 25  1  0  0  0
  9 75  1  0  0  0
 10 11  1  0  0  0
 10 27  2  0  0  0
 11 12  1  0  0  0
 11 76  1  0  0  0
 12 13  1  0  0  0
 12 28  1  0  0  0
 12 77  1  0  0  0
 13 14  1  0  0  0
 13 34  2  0  0  0
 14 15  1  0  0  0
 14 78  1  0  0  0
 15 16  1  0  0  0
 15 42  1  0  0  0
 15 79  1  0  0  0
 16 17  1  0  0  0
 16 35  2  0  0  0
 17 29  1  0  0  0
 17 80  1  0  0  0
 18 81  1  0  0  0
 18 82  1  0  0  0
 18 83  1  0  0  0
 20 21  1  0  0  0
 20 84  1  0  0  0
 20 85  1  0  0  0
 21 86  1  0  0  0
 23 54  1  0  0  0
 23 87  1  0  0  0
 23 88  1  0  0  0
 25 26  1  0  0  0
 25 89  1  0  0  0
 25 90  1  0  0  0
 26 60  2  0  0  0
 26 64  1  0  0  0
 28 69  1  0  0  0
 28 91  1  0  0  0
 28 92  1  0  0  0
 29 30  1  0  0  0
 29 36  1  0  0  0
 29 93  1  0  0  0
 30 31  1  0  0  0
 30 37  2  0  0  0
 31 32  1  0  0  0
 31 94  1  0  0  0
 32 33  1  0  0  0
 32 40  1  0  0  0
 32 95  1  0  0  0
 33 38  1  0  0  0
 33 39  2  0  0  0
 36 96  1  0  0  0
 36 97  1  0  0  0
 36 98  1  0  0  0
 38 99  1  0  0  0
 38100  1  0  0  0
 40 41  1  0  0  0
 40101  1  0  0  0
 40102  1  0  0  0
 41 49  1  0  0  0
 41103  1  0  0  0
 41104  1  0  0  0
 42 43  1  0  0  0
 42105  1  0  0  0
 42106  1  0  0  0
 43 44  1  0  0  0
 43107  1  0  0  0
 43108  1  0  0  0
 44 45  1  0  0  0
 44109  1  0  0  0
 44110  1  0  0  0
 45 46  1  0  0  0
 45111  1  0  0  0
 46 47  1  0  0  0
 46 48  2  0  0  0
 47112  1  0  0  0
 47113  1  0  0  0
 48114  1  0  0  0
 48139  1  0  0  0
 49 50  1  0  0  0
 49115  1  0  0  0
 49116  1  0  0  0
 50 51  1  0  0  0
 50117  1  0  0  0
 51 52  2  0  0  0
 51 53  1  0  0  0
 52118  1  0  0  0
 52138  1  0  0  0
 53119  1  0  0  0
 53120  1  0  0  0
 54 56  1  0  0  0
 54121  1  0  0  0
 54122  1  0  0  0
 55 56  1  0  0  0
 55 57  1  0  0  0
 55123  1  0  0  0
 56124  1  0  0  0
 56125  1  0  0  0
 57 58  2  0  0  0
 57 59  1  0  0  0
 58126  1  0  0  0
 58140  1  0  0  0
 59127  1  0  0  0
 59128  1  0  0  0
 60 61  1  0  0  0
 60129  1  0  0  0
 61 62  2  0  0  0
 61 65  1  0  0  0
 62 63  1  0  0  0
 62130  1  0  0  0
 63 64  2  0  0  0
 63131  1  0  0  0
 64132  1  0  0  0
 65 66  1  0  0  0
 65133  1  0  0  0
 66 67  1  0  0  0
 66 68  2  0  0  0
 67134  1  0  0  0
 67135  1  0  0  0
 68136  1  0  0  0
 68141  1  0  0  0
 69137  1  0  0  0
M  CHG  4  48   1  52   1  58   1  68   1
M  END
> <s_m_entry_id>
10

> <s_m_entry_name>
STS005-ligand-20230714.60

> <s_m_Source_Path>
D:\xubinbin\STS005

> <s_m_Source_File>
prime_mmgbsa_all-20230714-out.maegz

> <i_m_Source_File_Index>
10

> <s_psp_Prime_MMGBSA_Input_Structure_Hash>
b90bcefe166ecd956196dcf085880a93b2394e8f58f4c10c32b28f91

> <i_psp_number_heavy_atoms>
69

> <b_psp_distorted_structure>
1

> <i_psp_model_num>
0

> <r_psp_Prime_Coulomb>
-43264.1150211889

> <r_psp_Prime_Covalent>
7569.2213200886

> <r_psp_Prime_vdW>
-6871.32571455135

> <r_psp_Prime_Lipo>
-3894.04537742415

> <r_psp_Prime_Solv_GB>
-13014.8667551962

> <r_psp_Prime_Energy>
-60558.9605657728

> <s_psp_Prime_Energy_Force_Field>
S-OPLS

> <s_psp_Prime_Energy_Solvent_Model>
VSGB2.1

> <r_psp_Prime_Bond_Covalent>
955.625413387941

> <r_psp_Prime_Bond_SGB>
111502.793118562

> <r_psp_Prime_Angle_Covalent>
3208.53343608956

> <r_psp_Prime_Angle_SGB>
-44121.7898926404

> <r_psp_Prime_Torsion_Covalent>
3405.0624706111

> <r_psp_Prime_NB14_LJ>
7960.70034808964

> <r_psp_Prime_NB14_Lipo>
0

> <r_psp_Prime_NB14_Elec>
48370.206981661

> <r_psp_Prime_NB14_SGB>
-41196.0388576901

> <r_psp_Prime_NBShort_LJ>
-14066.8610646609

> <r_psp_Prime_NBShort_Lipo>
-3894.04537742415

> <r_psp_Prime_NBShort_Elec>
-95935.2810262373

> <r_psp_Prime_NBShort_SGB>
45213.6306776848

> <r_psp_Prime_NBLong_LJ>
-765.16499798008

> <r_psp_Prime_NBLong_Lipo>
0

> <r_psp_Prime_NBLong_Elec>
4300.95902338743

> <r_psp_Prime_NBLong_SGB>
-4116.57331498328

> <r_psp_Prime_Self_SGB>
-80296.8884861295

> <r_psp_Prime_Hbond>
-775.760189287853

> <r_psp_Prime_Packing>
-136.009869591887

> <r_psp_Prime_SelfCont>
-172.058958621051

> <i_lp_mmshare_version>
54117

> <s_epik_input>
W0hdXE49QyhbTkgyXSlcW05IXVtDSDJdW0NIMl1bQ0gyXVtDQEBIXShbTkhdQyg9TylbQ0BASF0oW0NIMl1bU0hdKVtOSF1DKD1PKVtDSDNdKUMoPU8pW05IXVtDQEhdKFtDSDJdYzFbY0hdYyhbY0hdW2NIXVtjSF0xKVtOSF0vQyhbTkgyXSk9Ti9bSF0pQyg9TylbTkhdW0NASF0oW0NIMl1bT0hdKUMoPU8pW05IXVtDQEhdKFtDSDJdW0NIMl1bQ0gyXVtOSF0vQyhbTkgyXSk9Ti9bSF0pQyg9TylbTkhdW0NASF0oW0NIM10pQyg9TylbTkhdW0NAQEhdKEMoPU8pW05IMl0pW0NIMl1bQ0gyXVtDSDJdW05IXS9DKD1OL1tIXSlbTkgyXQ==

> <s_epik_cmdline>
J2VwaWtfcHl0aG9uJywgJy1waCcsICc3LjAnLCAnLXRuJywgJzgnLCAnLW1hJywgJzUwMCcsICctaW1hZScsICc8aW5maWxlLm1hZT4nLCAnLW9tYWUnLCAnPG91dGZpbGUubWFlPic=

> <r_epik_Ionization_Penalty>
  0.0087

> <r_epik_Ionization_Penalty_Charging>
  0.0001

> <r_epik_Ionization_Penalty_Neutral>
  0.0087

> <r_epik_State_Penalty>
  0.0065

> <r_epik_Charging_Adjusted_Penalty>
0.00661196205214352

> <i_epik_Tot_Q>
4

> <i_epik_Tot_abs_Q>
4

> <s_epik_Chemistry_Notes>
This compound has an imine and may undergo hydrolysis.

> <i_f3d_flags>
0

> <s_lp_Force_Field>
S-OPLS

> <r_lp_Energy>
45.139319

> <b_lp_Chiralities_Consistent>
1

> <s_lp_Variant>
094-1

> <s_i_glide_gridfile>
glide-grid_D-site

> <i_i_glide_lignum>
119

> <i_i_glide_rotatable_bonds>
44

> <r_i_docking_score>
-8.42508954260343

> <r_i_glide_ligand_efficiency>
-0.122102746994253

> <r_i_glide_ligand_efficiency_sa>
-0.500812466287861

> <r_i_glide_ligand_efficiency_ln>
-1.60965191197455

> <r_glide_XP_GScore>
-8.43158954260343

> <r_i_glide_gscore>
-8.43158954260343

> <r_i_glide_evdw>
-42.4208984375

> <r_i_glide_ecoul>
-9.18444442749023

> <r_i_glide_energy>
-51.6053428649902

> <r_i_glide_einternal>
16.9441394805908

> <r_i_glide_emodel>
-82.8130798339844

> <r_glide_XP_HBond>
-2.13576763265659

> <i_i_glide_confnum>
1

> <i_i_glide_posenum>
2

> <r_i_glide_eff_state_penalty>
0.0065

> <i_glide_XP_PoseRank>
1

> <s_psp_MMGBSA_moved_residues>


> <r_psp_MMGBSA_dG_Bind>
-66.323639950715

> <r_psp_MMGBSA_dG_Bind_Coulomb>
-715.734495233963

> <r_psp_MMGBSA_dG_Bind_Covalent>
6.87530700911157

> <r_psp_MMGBSA_dG_Bind_Hbond>
-7.93745351295615

> <r_psp_MMGBSA_dG_Bind_Lipo>
-10.5440168528853

> <r_psp_MMGBSA_dG_Bind_Packing>
-0.000738067176484947

> <r_psp_MMGBSA_dG_Bind_SelfCont>
0

> <r_psp_MMGBSA_dG_Bind_Solv_GB>
722.66978006142

> <r_psp_MMGBSA_dG_Bind_vdW>
-61.6520233543015

> <r_psp_Lig_Strain_Energy>
15.1397321301221

> <r_psp_Lig_Strain_Coulomb>
-20.1769442227176

> <r_psp_Lig_Strain_Covalent>
6.87530700910804

> <r_psp_Lig_Strain_Hbond>
0

> <r_psp_Lig_Strain_Lipo>
0.910183299068019

> <r_psp_Lig_Strain_Packing>
0

> <r_psp_Lig_Strain_SelfCont>
0

> <r_psp_Lig_Strain_Solv_GB>
22.3098569079835

> <r_psp_Lig_Strain_vdW>
5.22132913668004

> <r_psp_Ligand_Energy>
-285.764057664106

> <r_psp_Ligand_Coulomb>
-78.0888867099406

> <r_psp_Ligand_Covalent>
26.5938370817127

> <r_psp_Ligand_Hbond>
0

> <r_psp_Ligand_Lipo>
-6.4525985094586

> <r_psp_Ligand_Packing>
0

> <r_psp_Ligand_SelfCont>
0

> <r_psp_Ligand_Solv_GB>
-241.192318294153

> <r_psp_Ligand_vdW>
13.3759087677339

> <r_psp_Complex_Energy>
-60558.9605657728

> <r_psp_Complex_Coulomb>
-43264.1150211889

> <r_psp_Complex_Covalent>
7569.2213200886

> <r_psp_Complex_Hbond>
-775.760189287853

> <r_psp_Complex_Lipo>
-3894.04537742415

> <r_psp_Complex_Packing>
-136.009869591887

> <r_psp_Complex_SelfCont>
-172.058958621051

> <r_psp_Complex_Solv_GB>
-13014.8667551962

> <r_psp_Complex_vdW>
-6871.32571455135

> <r_psp_Receptor_Energy>
-60206.872868158

> <r_psp_Receptor_Coulomb>
-42470.291639245

> <r_psp_Receptor_Covalent>
7535.75217599777

> <r_psp_Receptor_Hbond>
-767.822735774897

> <r_psp_Receptor_Lipo>
-3877.04876206181

> <r_psp_Receptor_Packing>
-136.00913152471

> <r_psp_Receptor_SelfCont>
-172.058958621051

> <r_psp_Receptor_Solv_GB>
-13496.3442169635

> <r_psp_Receptor_vdW>
-6823.04959996478

> <r_psp_MMGBSA_dG_Bind(NS)>
-81.4633720808342

> <r_psp_MMGBSA_dG_Bind(NS)_Coulomb>
-695.557551011247

> <r_psp_MMGBSA_dG_Bind(NS)_Covalent>
3.63797880709171e-12

> <r_psp_MMGBSA_dG_Bind(NS)_Hbond>
-7.93745351295615

> <r_psp_MMGBSA_dG_Bind(NS)_Lipo>
-11.4542001519535

> <r_psp_MMGBSA_dG_Bind(NS)_Packing>
-0.000738067176484947

> <r_psp_MMGBSA_dG_Bind(NS)_SelfCont>
0

> <r_psp_MMGBSA_dG_Bind(NS)_Solv_GB>
700.359923153435

> <r_psp_MMGBSA_dG_Bind(NS)_vdW>
-66.8733524909821

> <r_psp_Rec_Strain_Energy>
0

> <r_psp_Rec_Strain_Coulomb>
0

> <r_psp_Rec_Strain_Covalent>
0

> <r_psp_Rec_Strain_Hbond>
0

> <r_psp_Rec_Strain_Lipo>
0

> <r_psp_Rec_Strain_Packing>
0

> <r_psp_Rec_Strain_SelfCont>
0

> <r_psp_Rec_Strain_Solv_GB>
0

> <r_psp_Rec_Strain_vdW>
0

> <r_psp_Prime_MMGBSA_ligand_efficiency>
-0.961212173198768

> <r_psp_Prime_MMGBSA_ligand_efficiency_sa>
-1.44181825979815

> <r_psp_Prime_MMGBSA_ligand_efficiency_ln>
-12.6714349225529

> <Name>
94

> <s_m_subgroup_title>
prime_mmgbsa_all-20230714-out

> <s_m_subgroupid>
prime_mmgbsa_all-20230714-out

> <b_m_subgroup_collapsed>
0

$$$$
