STS005_prime_MMGBSA_result_73
                    3D
 Schrodinger Suite 2021-3.
156156  0  0  1  0            999 V2000
  199.0195  215.9420  253.8015 C   0  0  0  0  0  0
  197.8381  215.7096  254.3841 N   0  0  0  0  0  0
  196.6184  215.3479  253.6747 C   0  0  1  0  0  0
  195.7692  214.4903  254.6229 C   0  0  0  0  0  0
  195.2781  213.3459  254.1173 N   0  0  0  0  0  0
  194.4386  212.3298  254.7753 C   0  0  1  0  0  0
  195.1318  211.5460  255.9084 C   0  0  0  0  0  0
  194.6648  210.3077  256.1340 N   0  0  0  0  0  0
  195.0765  209.4792  257.2768 C   0  0  1  0  0  0
  194.4433  209.9738  258.5879 C   0  0  0  0  0  0
  193.1540  210.3066  258.5056 N   0  0  0  0  0  0
  192.2384  210.3548  259.6302 C   0  0  1  0  0  0
  191.2431  211.4780  259.3425 C   0  0  0  0  0  0
  190.7967  212.1424  260.4093 N   0  0  0  0  0  0
  189.8985  213.2860  260.3721 C   0  0  1  0  0  0
  189.2914  213.3862  261.7805 C   0  0  0  0  0  0
  188.4747  212.3798  262.1286 N   0  0  0  0  0  0
  200.1107  216.5423  254.6658 C   0  0  0  0  0  0
  199.2472  215.7076  252.6158 O   0  0  0  0  0  0
  195.9047  216.6560  253.2719 C   0  0  0  0  0  0
  194.3842  216.5100  252.2987 S   0  0  0  0  0  0
  195.5713  214.9107  255.7630 O   0  0  0  0  0  0
  193.1229  212.9522  255.2868 C   0  0  0  0  0  0
  196.0227  212.0606  256.5762 O   0  0  0  0  0  0
  194.6519  207.9888  257.1603 C   0  0  0  0  0  0
  195.0612  209.8931  259.6465 O   0  0  0  0  0  0
  191.5600  208.9666  259.7620 C   0  0  0  0  0  0
  188.0121  212.0585  263.4857 C   0  0  1  0  0  0
  187.3147  213.2036  264.2350 C   0  0  0  0  0  0
  186.6156  214.0793  263.5015 N   0  0  0  0  0  0
  186.0403  215.3246  264.0322 C   0  0  1  0  0  0
  187.0612  216.3925  264.5222 C   0  0  0  0  0  0
  190.9119  211.7141  258.1790 O   0  0  0  0  0  0
  189.6233  214.2946  262.5398 O   0  0  0  0  0  0
  187.1204  210.8050  263.4505 C   0  0  0  0  0  0
  187.4512  213.2839  265.4528 O   0  0  0  0  0  0
  188.3531  216.2690  264.2401 N   0  0  0  0  0  0
  186.6624  217.3595  265.1595 O   0  0  0  0  0  0
  184.9818  215.8810  263.0363 C   0  0  0  0  0  0
  185.4574  216.8878  261.9585 C   0  0  0  0  0  0
  190.7029  214.5108  259.8684 C   0  0  0  0  0  0
  189.9665  215.8535  259.8471 C   0  0  0  0  0  0
  190.7463  216.9136  259.0476 C   0  0  0  0  0  0
  190.3523  218.2795  259.4267 N   0  0  0  0  0  0
  190.7868  218.9255  260.5273 C   0  0  0  0  0  0
  191.6651  218.3650  261.3736 N   0  0  0  0  0  0
  190.3325  220.1545  260.7999 N   0  3  0  0  0  0
  186.5991  216.4357  261.0274 C   0  0  0  0  0  0
  186.1772  215.4267  260.0379 N   0  0  0  0  0  0
  186.2800  215.4950  258.6956 C   0  0  0  0  0  0
  185.9239  214.4266  257.9786 N   0  3  0  0  0  0
  186.7265  216.5850  258.0511 N   0  0  0  0  0  0
  190.6336  208.8010  260.9793 C   0  0  0  0  0  0
  189.8117  207.4998  260.9402 C   0  0  0  0  0  0
  189.0275  207.3377  262.1745 N   0  0  0  0  0  0
  189.4385  206.7795  263.3306 C   0  0  0  0  0  0
  190.6354  206.1797  263.4539 N   0  0  0  0  0  0
  188.6268  206.8315  264.3948 N   0  3  0  0  0  0
  195.1939  207.2219  255.9708 C   0  0  0  0  0  0
  194.5214  207.2654  254.7523 C   0  0  0  0  0  0
  194.8906  206.4076  253.7130 C   0  0  0  0  0  0
  195.9589  205.5232  253.8835 C   0  0  0  0  0  0
  196.6619  205.5138  255.0858 C   0  0  0  0  0  0
  196.2839  206.3633  256.1206 C   0  0  0  0  0  0
  194.2636  206.5076  252.4392 N   0  0  0  0  0  0
  192.9716  206.6645  252.1593 C   0  0  0  0  0  0
  192.6342  206.9319  250.9147 N   0  3  0  0  0  0
  191.9986  206.5769  253.0505 N   0  0  0  0  0  0
  193.5475  218.3686  252.4384 S   0  0  0  0  0  0
  194.0810  219.2997  250.9691 C   0  0  0  0  0  0
  195.2461  220.3253  251.1413 C   0  0  2  0  0  0
  195.1341  221.3059  250.0416 N   0  0  0  0  0  0
  195.6744  222.5340  249.9993 C   0  0  0  0  0  0
  195.3327  223.3934  248.7910 C   0  0  0  0  0  0
  196.4210  222.9800  250.8668 O   0  0  0  0  0  0
  196.6737  219.6503  251.1407 C   0  0  0  0  0  0
  197.5082  220.1848  251.9054 O   0  0  0  0  0  0
  196.8594  218.7184  250.3258 O   0  5  0  0  0  0
  197.7027  215.8268  255.3805 H   0  0  0  0  0  0
  196.8592  214.7800  252.7747 H   0  0  0  0  0  0
  195.5119  213.1324  253.1605 H   0  0  0  0  0  0
  194.1900  211.6127  253.9917 H   0  0  0  0  0  0
  193.9668  209.9273  255.5177 H   0  0  0  0  0  0
  196.1634  209.5404  257.3743 H   0  0  0  0  0  0
  192.7254  210.4957  257.6110 H   0  0  0  0  0  0
  192.7898  210.5896  260.5437 H   0  0  0  0  0  0
  191.1166  211.8769  261.3294 H   0  0  0  0  0  0
  189.0865  213.0892  259.6682 H   0  0  0  0  0  0
  188.2215  211.7120  261.4032 H   0  0  0  0  0  0
  200.0518  216.2015  255.6981 H   0  0  0  0  0  0
  201.0779  216.2617  254.2563 H   0  0  0  0  0  0
  200.0415  217.6301  254.6544 H   0  0  0  0  0  0
  195.6580  217.2203  254.1728 H   0  0  0  0  0  0
  196.5934  217.2790  252.7037 H   0  0  0  0  0  0
  192.4297  212.1884  255.6409 H   0  0  0  0  0  0
  193.2984  213.6337  256.1206 H   0  0  0  0  0  0
  192.6163  213.5120  254.5006 H   0  0  0  0  0  0
  194.9285  207.4321  258.0555 H   0  0  0  0  0  0
  193.5643  207.8874  257.1324 H   0  0  0  0  0  0
  190.9931  208.7596  258.8518 H   0  0  0  0  0  0
  192.3293  208.1946  259.8213 H   0  0  0  0  0  0
  188.9043  211.8155  264.0662 H   0  0  0  0  0  0
  186.4615  213.8653  262.5274 H   0  0  0  0  0  0
  185.4933  215.0237  264.9279 H   0  0  0  0  0  0
  186.7884  210.5308  264.4532 H   0  0  0  0  0  0
  186.2244  210.9553  262.8492 H   0  0  0  0  0  0
  187.6529  209.9476  263.0409 H   0  0  0  0  0  0
  188.7184  215.4607  263.7439 H   0  0  0  0  0  0
  188.9820  216.9745  264.5825 H   0  0  0  0  0  0
  184.2424  216.4168  263.6344 H   0  0  0  0  0  0
  184.4170  215.0678  262.5803 H   0  0  0  0  0  0
  185.6973  217.8597  262.3930 H   0  0  0  0  0  0
  184.5780  217.0773  261.3386 H   0  0  0  0  0  0
  191.5935  214.6275  260.4886 H   0  0  0  0  0  0
  191.0660  214.3029  258.8605 H   0  0  0  0  0  0
  189.0285  215.6671  259.3290 H   0  0  0  0  0  0
  189.7067  216.1991  260.8487 H   0  0  0  0  0  0
  191.8263  216.7590  259.0594 H   0  0  0  0  0  0
  190.4480  216.8356  258.0014 H   0  0  0  0  0  0
  189.6904  218.7405  258.8180 H   0  0  0  0  0  0
  191.9417  218.8555  262.2213 H   0  0  0  0  0  0
  192.0227  217.4359  261.2079 H   0  0  0  0  0  0
  190.6431  220.6260  261.6410 H   0  0  0  0  0  0
  187.3461  215.9086  261.6171 H   0  0  0  0  0  0
  187.1320  217.2903  260.6116 H   0  0  0  0  0  0
  185.7337  214.5942  260.4190 H   0  0  0  0  0  0
  185.4509  213.6544  258.4443 H   0  0  0  0  0  0
  186.7848  216.6049  257.0436 H   0  0  0  0  0  0
  186.9573  217.4191  258.5690 H   0  0  0  0  0  0
  191.1702  208.9146  261.9230 H   0  0  0  0  0  0
  189.9186  209.6193  260.9500 H   0  0  0  0  0  0
  189.0547  207.5975  260.1600 H   0  0  0  0  0  0
  190.4048  206.6233  260.6742 H   0  0  0  0  0  0
  188.1077  207.7590  262.1381 H   0  0  0  0  0  0
  190.9246  205.7713  264.3304 H   0  0  0  0  0  0
  191.2562  206.0893  262.6564 H   0  0  0  0  0  0
  188.8943  206.3989  265.2662 H   0  0  0  0  0  0
  193.7034  207.9575  254.6257 H   0  0  0  0  0  0
  196.2765  204.8686  253.0824 H   0  0  0  0  0  0
  197.4859  204.8364  255.2303 H   0  0  0  0  0  0
  196.8175  206.3102  257.0496 H   0  0  0  0  0  0
  194.8867  206.4941  251.6450 H   0  0  0  0  0  0
  191.6975  206.7061  250.5910 H   0  0  0  0  0  0
  191.0348  206.6178  252.7279 H   0  0  0  0  0  0
  192.2167  206.3407  254.0052 H   0  0  0  0  0  0
  194.2539  218.5988  250.1512 H   0  0  0  0  0  0
  193.1828  219.8453  250.6749 H   0  0  0  0  0  0
  195.1043  220.8463  252.0935 H   0  0  0  0  0  0
  194.5366  221.0220  249.2803 H   0  0  0  0  0  0
  194.9912  222.7910  247.9495 H   0  0  0  0  0  0
  194.5452  224.1001  249.0520 H   0  0  0  0  0  0
  196.2047  223.9633  248.4727 H   0  0  0  0  0  0
  186.0026  214.4138  256.9731 H   0  0  0  0  0  0
  189.6762  220.6196  260.1899 H   0  0  0  0  0  0
  187.7131  207.2563  264.3271 H   0  0  0  0  0  0
  193.3027  207.3359  250.2778 H   0  0  0  0  0  0
  1  2  1  0  0  0
  1 18  1  0  0  0
  1 19  2  0  0  0
  2  3  1  0  0  0
  2 79  1  0  0  0
  3  4  1  0  0  0
  3 20  1  0  0  0
  3 80  1  0  0  0
  4  5  1  0  0  0
  4 22  2  0  0  0
  5  6  1  0  0  0
  5 81  1  0  0  0
  6  7  1  0  0  0
  6 23  1  0  0  0
  6 82  1  0  0  0
  7  8  1  0  0  0
  7 24  2  0  0  0
  8  9  1  0  0  0
  8 83  1  0  0  0
  9 10  1  0  0  0
  9 25  1  0  0  0
  9 84  1  0  0  0
 10 11  1  0  0  0
 10 26  2  0  0  0
 11 12  1  0  0  0
 11 85  1  0  0  0
 12 13  1  0  0  0
 12 27  1  0  0  0
 12 86  1  0  0  0
 13 14  1  0  0  0
 13 33  2  0  0  0
 14 15  1  0  0  0
 14 87  1  0  0  0
 15 16  1  0  0  0
 15 41  1  0  0  0
 15 88  1  0  0  0
 16 17  1  0  0  0
 16 34  2  0  0  0
 17 28  1  0  0  0
 17 89  1  0  0  0
 18 90  1  0  0  0
 18 91  1  0  0  0
 18 92  1  0  0  0
 20 21  1  0  0  0
 20 93  1  0  0  0
 20 94  1  0  0  0
 21 69  1  0  0  0
 23 95  1  0  0  0
 23 96  1  0  0  0
 23 97  1  0  0  0
 25 59  1  0  0  0
 25 98  1  0  0  0
 25 99  1  0  0  0
 27 53  1  0  0  0
 27100  1  0  0  0
 27101  1  0  0  0
 28 29  1  0  0  0
 28 35  1  0  0  0
 28102  1  0  0  0
 29 30  1  0  0  0
 29 36  2  0  0  0
 30 31  1  0  0  0
 30103  1  0  0  0
 31 32  1  0  0  0
 31 39  1  0  0  0
 31104  1  0  0  0
 32 37  1  0  0  0
 32 38  2  0  0  0
 35105  1  0  0  0
 35106  1  0  0  0
 35107  1  0  0  0
 37108  1  0  0  0
 37109  1  0  0  0
 39 40  1  0  0  0
 39110  1  0  0  0
 39111  1  0  0  0
 40 48  1  0  0  0
 40112  1  0  0  0
 40113  1  0  0  0
 41 42  1  0  0  0
 41114  1  0  0  0
 41115  1  0  0  0
 42 43  1  0  0  0
 42116  1  0  0  0
 42117  1  0  0  0
 43 44  1  0  0  0
 43118  1  0  0  0
 43119  1  0  0  0
 44 45  1  0  0  0
 44120  1  0  0  0
 45 46  1  0  0  0
 45 47  2  0  0  0
 46121  1  0  0  0
 46122  1  0  0  0
 47123  1  0  0  0
 47154  1  0  0  0
 48 49  1  0  0  0
 48124  1  0  0  0
 48125  1  0  0  0
 49 50  1  0  0  0
 49126  1  0  0  0
 50 51  2  0  0  0
 50 52  1  0  0  0
 51127  1  0  0  0
 51153  1  0  0  0
 52128  1  0  0  0
 52129  1  0  0  0
 53 54  1  0  0  0
 53130  1  0  0  0
 53131  1  0  0  0
 54 55  1  0  0  0
 54132  1  0  0  0
 54133  1  0  0  0
 55 56  1  0  0  0
 55134  1  0  0  0
 56 57  1  0  0  0
 56 58  2  0  0  0
 57135  1  0  0  0
 57136  1  0  0  0
 58137  1  0  0  0
 58155  1  0  0  0
 59 60  2  0  0  0
 59 64  1  0  0  0
 60 61  1  0  0  0
 60138  1  0  0  0
 61 62  2  0  0  0
 61 65  1  0  0  0
 62 63  1  0  0  0
 62139  1  0  0  0
 63 64  2  0  0  0
 63140  1  0  0  0
 64141  1  0  0  0
 65 66  1  0  0  0
 65142  1  0  0  0
 66 67  2  0  0  0
 66 68  1  0  0  0
 67143  1  0  0  0
 67156  1  0  0  0
 68144  1  0  0  0
 68145  1  0  0  0
 69 70  1  0  0  0
 70 71  1  0  0  0
 70146  1  0  0  0
 70147  1  0  0  0
 71 76  1  0  0  0
 71 72  1  0  0  0
 71148  1  0  0  0
 72 73  1  0  0  0
 72149  1  0  0  0
 73 74  1  0  0  0
 73 75  2  0  0  0
 74150  1  0  0  0
 74151  1  0  0  0
 74152  1  0  0  0
 76 77  2  0  0  0
 76 78  1  0  0  0
M  CHG  5  47   1  51   1  58   1  67   1  78  -1
M  END
> <s_m_entry_id>
44

> <s_m_entry_name>
STS005-ligand-20230714.70

> <s_m_Source_Path>
D:\xubinbin\STS005

> <s_m_Source_File>
prime_mmgbsa_all-20230714-out.maegz

> <i_m_Source_File_Index>
44

> <s_psp_Prime_MMGBSA_Input_Structure_Hash>
559fa2422fc1ce69ae9b48aa0bc235834cb0d0d65ff85e8e3f8a86c6

> <i_psp_number_heavy_atoms>
78

> <b_psp_distorted_structure>
1

> <i_psp_model_num>
0

> <r_psp_Prime_Coulomb>
-43097.4116220855

> <r_psp_Prime_Covalent>
7587.47446683075

> <r_psp_Prime_vdW>
-6870.37935762047

> <r_psp_Prime_Lipo>
-3890.50405968344

> <r_psp_Prime_Solv_GB>
-13217.9061451406

> <r_psp_Prime_Energy>
-60576.3927484604

> <s_psp_Prime_Energy_Force_Field>
S-OPLS

> <s_psp_Prime_Energy_Solvent_Model>
VSGB2.1

> <r_psp_Prime_Bond_Covalent>
956.439078515894

> <r_psp_Prime_Bond_SGB>
111542.919309529

> <r_psp_Prime_Angle_Covalent>
3216.70505081263

> <r_psp_Prime_Angle_SGB>
-44165.928939163

> <r_psp_Prime_Torsion_Covalent>
3414.33033750222

> <r_psp_Prime_NB14_LJ>
7964.80840947647

> <r_psp_Prime_NB14_Lipo>
0

> <r_psp_Prime_NB14_Elec>
48381.1438621701

> <r_psp_Prime_NB14_SGB>
-41230.9082496548

> <r_psp_Prime_NBShort_LJ>
-14069.9650624887

> <r_psp_Prime_NBShort_Lipo>
-3890.50405968344

> <r_psp_Prime_NBShort_Elec>
-95968.4820274907

> <r_psp_Prime_NBShort_SGB>
45263.6113653929

> <r_psp_Prime_NBLong_LJ>
-765.222704608203

> <r_psp_Prime_NBLong_Lipo>
0

> <r_psp_Prime_NBLong_Elec>
4489.92654323514

> <r_psp_Prime_NBLong_SGB>
-4301.09409591472

> <r_psp_Prime_Self_SGB>
-80326.5055353301

> <r_psp_Prime_Hbond>
-778.799560515104

> <r_psp_Prime_Packing>
-136.807511625028

> <r_psp_Prime_SelfCont>
-172.058958621051

> <i_lp_mmshare_version>
54117

> <s_epik_input>
W0NIM11DKD1PKVtOSF1bQ0BIXShDKD1PKVtPSF0pW0NIMl1TU1tDSDJdW0NAQEhdKFtOSF1DKD1PKVtDSDNdKUMoPU8pW05IXVtDQEhdKFtDSDNdKUMoPU8pW05IXVtDQEhdKFtDSDJdYzFbY0hdYyhbY0hdW2NIXVtjSF0xKVtOSF0vQyg9Ti9bSF0pW05IMl0pQyg9TylbTkhdW0NASF0oW0NIMl1bQ0gyXVtDSDJdW05IXS9DKFtOSDJdKT1OL1tIXSlDKD1PKVtOSF1bQ0BIXShbQ0gyXVtDSDJdW0NIMl1bTkhdL0MoW05IMl0pPU4vW0hdKUMoPU8pW05IXVtDQEhdKFtDSDNdKUMoPU8pW05IXVtDQEBIXShDKD1PKVtOSDJdKVtDSDJdW0NIMl1bQ0gyXVtOSF0vQyg9Ti9bSF0pW05IMl0=

> <s_epik_cmdline>
J2VwaWtfcHl0aG9uJywgJy1waCcsICc3LjAnLCAnLXRuJywgJzgnLCAnLW1hJywgJzUwMCcsICctaW1hZScsICc8aW5maWxlLm1hZT4nLCAnLW9tYWUnLCAnPG91dGZpbGUubWFlPic=

> <r_epik_Ionization_Penalty>
  0.0002

> <r_epik_Ionization_Penalty_Charging>
  0.0002

> <r_epik_Ionization_Penalty_Neutral>
  0.0000

> <r_epik_State_Penalty>
  0.0000

> <r_epik_Charging_Adjusted_Penalty>
0.000206177587708055

> <i_epik_Tot_Q>
3

> <i_epik_Tot_abs_Q>
5

> <s_epik_Chemistry_Notes>
This compound has an imine and may undergo hydrolysis.

> <i_f3d_flags>
0

> <s_lp_Force_Field>
S-OPLS

> <r_lp_Energy>
31.262296

> <b_lp_Chiralities_Consistent>
1

> <s_lp_Variant>
105-1

> <s_i_glide_gridfile>
glide-grid_D-site

> <i_i_glide_lignum>
140

> <i_i_glide_rotatable_bonds>
48

> <r_i_docking_score>
-6.60636260906069

> <r_i_glide_ligand_efficiency>
-0.0846969565264191

> <r_i_glide_ligand_efficiency_sa>
-0.361881186090459

> <r_i_glide_ligand_efficiency_ln>
-1.2332876067754

> <r_glide_XP_GScore>
-6.60636260906069

> <r_i_glide_gscore>
-6.60636260906069

> <r_i_glide_evdw>
-42.6354866027832

> <r_i_glide_ecoul>
-33.9925498962402

> <r_i_glide_energy>
-76.6280364990234

> <r_i_glide_einternal>
0

> <r_i_glide_emodel>
-102.776334837248

> <r_glide_XP_HBond>
-2.54462492112478

> <i_i_glide_confnum>
1

> <i_i_glide_posenum>
2

> <r_i_glide_eff_state_penalty>
0

> <i_glide_XP_PoseRank>
1

> <s_psp_MMGBSA_moved_residues>


> <r_psp_MMGBSA_dG_Bind>
-34.0159869429335

> <r_psp_MMGBSA_dG_Bind_Coulomb>
-450.517527186865

> <r_psp_MMGBSA_dG_Bind_Covalent>
12.9529171598888

> <r_psp_MMGBSA_dG_Bind_Hbond>
-10.9768247402071

> <r_psp_MMGBSA_dG_Bind_Lipo>
-4.25544023695875

> <r_psp_MMGBSA_dG_Bind_Packing>
-0.798380100317615

> <r_psp_MMGBSA_dG_Bind_SelfCont>
0

> <r_psp_MMGBSA_dG_Bind_Solv_GB>
476.185459543512

> <r_psp_MMGBSA_dG_Bind_vdW>
-56.6061913819749

> <r_psp_Lig_Strain_Energy>
35.4980369826283

> <r_psp_Lig_Strain_Coulomb>
63.0003583917907

> <r_psp_Lig_Strain_Covalent>
12.9529171598866

> <r_psp_Lig_Strain_Hbond>
0

> <r_psp_Lig_Strain_Lipo>
3.47078647474102

> <r_psp_Lig_Strain_Packing>
0

> <r_psp_Lig_Strain_SelfCont>
0

> <r_psp_Lig_Strain_Solv_GB>
-51.9480522736346

> <r_psp_Lig_Strain_vdW>
8.02202722984457

> <r_psp_Ligand_Energy>
-335.503893359553

> <r_psp_Ligand_Coulomb>
-176.602455653614

> <r_psp_Ligand_Covalent>
38.7693736730847

> <r_psp_Ligand_Hbond>
0

> <r_psp_Ligand_Lipo>
-9.19985738467441

> <r_psp_Ligand_Packing>
0

> <r_psp_Ligand_SelfCont>
0

> <r_psp_Ligand_Solv_GB>
-197.747387720634

> <r_psp_Ligand_vdW>
9.27643372628464

> <r_psp_Complex_Energy>
-60576.3927484604

> <r_psp_Complex_Coulomb>
-43097.4116220855

> <r_psp_Complex_Covalent>
7587.47446683075

> <r_psp_Complex_Hbond>
-778.799560515104

> <r_psp_Complex_Lipo>
-3890.50405968344

> <r_psp_Complex_Packing>
-136.807511625028

> <r_psp_Complex_SelfCont>
-172.058958621051

> <r_psp_Complex_Solv_GB>
-13217.9061451406

> <r_psp_Complex_vdW>
-6870.37935762047

> <r_psp_Receptor_Energy>
-60206.872868158

> <r_psp_Receptor_Coulomb>
-42470.291639245

> <r_psp_Receptor_Covalent>
7535.75217599777

> <r_psp_Receptor_Hbond>
-767.822735774897

> <r_psp_Receptor_Lipo>
-3877.04876206181

> <r_psp_Receptor_Packing>
-136.00913152471

> <r_psp_Receptor_SelfCont>
-172.058958621051

> <r_psp_Receptor_Solv_GB>
-13496.3442169635

> <r_psp_Receptor_vdW>
-6823.04959996478

> <r_psp_MMGBSA_dG_Bind(NS)>
-69.5140239255561

> <r_psp_MMGBSA_dG_Bind(NS)_Coulomb>
-513.517885578658

> <r_psp_MMGBSA_dG_Bind(NS)_Covalent>
1.81898940354586e-12

> <r_psp_MMGBSA_dG_Bind(NS)_Hbond>
-10.9768247402071

> <r_psp_MMGBSA_dG_Bind(NS)_Lipo>
-7.72622671169984

> <r_psp_MMGBSA_dG_Bind(NS)_Packing>
-0.798380100317615

> <r_psp_MMGBSA_dG_Bind(NS)_SelfCont>
0

> <r_psp_MMGBSA_dG_Bind(NS)_Solv_GB>
528.133511817146

> <r_psp_MMGBSA_dG_Bind(NS)_vdW>
-64.6282186118196

> <r_psp_Rec_Strain_Energy>
0

> <r_psp_Rec_Strain_Coulomb>
0

> <r_psp_Rec_Strain_Covalent>
0

> <r_psp_Rec_Strain_Hbond>
0

> <r_psp_Rec_Strain_Lipo>
0

> <r_psp_Rec_Strain_Packing>
0

> <r_psp_Rec_Strain_SelfCont>
0

> <r_psp_Rec_Strain_Solv_GB>
0

> <r_psp_Rec_Strain_vdW>
0

> <r_psp_Prime_MMGBSA_ligand_efficiency>
-0.436102396704276

> <r_psp_Prime_MMGBSA_ligand_efficiency_sa>
-0.654153595056414

> <r_psp_Prime_MMGBSA_ligand_efficiency_ln>
-6.35016538017713

> <Name>
105

> <r_lp_tautomer_probability>
1

> <s_m_subgroup_title>
prime_mmgbsa_all-20230714-out

> <s_m_subgroupid>
prime_mmgbsa_all-20230714-out

> <b_m_subgroup_collapsed>
0

$$$$
