070_40.37
                    3D
 Schrodinger Suite 2021-2.
151151  0  0  1  0            999 V2000
  186.2519  214.8181  252.6603 C   0  0  0  0  0  0
  187.3215  214.0720  252.9447 N   0  0  0  0  0  0
  188.6734  214.3051  252.4518 C   0  0  1  0  0  0
  189.6208  213.4839  253.3409 C   0  0  0  0  0  0
  190.8975  213.4595  252.9445 N   0  0  0  0  0  0
  192.0626  212.8171  253.5558 C   0  0  1  0  0  0
  192.7712  213.7405  254.5456 C   0  0  0  0  0  0
  194.1005  213.5906  254.5949 N   0  0  0  0  0  0
  194.9393  214.0697  255.6879 C   0  0  1  0  0  0
  194.7520  213.0783  256.8541 C   0  0  0  0  0  0
  193.6827  213.2578  257.6352 N   0  0  0  0  0  0
  193.3932  212.5231  258.8613 C   0  0  1  0  0  0
  192.1536  213.1400  259.5114 C   0  0  0  0  0  0
  191.9455  212.8123  260.7873 N   0  0  0  0  0  0
  190.6728  212.9284  261.4872 C   0  0  1  0  0  0
  190.5406  211.6676  262.3417 C   0  0  0  0  0  0
  189.2954  211.2573  262.6229 N   0  0  0  0  0  0
  184.9646  214.5022  253.4005 C   0  0  0  0  0  0
  186.2789  215.7396  251.8484 O   0  0  0  0  0  0
  188.8087  213.9322  250.9528 C   0  0  0  0  0  0
  189.9904  214.9580  250.0291 S   0  0  0  0  0  0
  189.1640  212.8727  254.3099 O   0  0  0  0  0  0
  191.7834  211.4450  254.2248 C   0  0  0  0  0  0
  192.1311  214.4830  255.2893 O   0  0  0  0  0  0
  196.4235  214.2398  255.2329 C   0  0  0  0  0  0
  197.2669  215.1542  256.1290 C   0  0  0  0  0  0
  195.5681  212.1735  257.0149 O   0  0  0  0  0  0
  193.1323  211.0307  258.5722 C   0  0  0  0  0  0
  188.9393  210.0926  263.4474 C   0  0  1  0  0  0
  189.4399  208.7480  262.8819 C   0  0  0  0  0  0
  189.6503  208.7085  261.5630 N   0  0  0  0  0  0
  190.1279  207.5411  260.8132 C   0  0  1  0  0  0
  189.0619  206.4278  260.6477 C   0  0  0  0  0  0
  191.3956  213.8419  258.8428 O   0  0  0  0  0  0
  191.5670  211.1075  262.7323 O   0  0  0  0  0  0
  189.3963  210.3036  264.9023 C   0  0  0  0  0  0
  189.6102  207.7909  263.6320 O   0  0  0  0  0  0
  187.7898  206.7592  260.7849 N   0  0  0  0  0  0
  189.3809  205.2792  260.3759 O   0  0  0  0  0  0
  190.6400  208.0834  259.4599 C   0  0  0  0  0  0
  191.3680  207.0712  258.5530 C   0  0  0  0  0  0
  190.6315  214.1761  262.3927 C   0  0  0  0  0  0
  190.7978  215.5117  261.6527 C   0  0  0  0  0  0
  190.2874  216.6913  262.4974 C   0  0  0  0  0  0
  190.6502  218.0036  261.9426 N   0  0  0  0  0  0
  190.1895  218.6254  260.8405 C   0  0  0  0  0  0
  189.3031  218.0619  260.0048 N   0  0  0  0  0  0
  190.6364  219.8604  260.5830 N   0  3  0  0  0  0
  191.6707  207.6163  257.1457 C   0  0  0  0  0  0
  190.4326  207.7793  256.3601 N   0  0  0  0  0  0
  190.1597  207.3358  255.1208 C   0  0  0  0  0  0
  188.9407  207.5582  254.6165 N   0  3  0  0  0  0
  191.0607  206.6840  254.3698 N   0  0  0  0  0  0
  191.1730  210.3188  253.3665 C   0  0  0  0  0  0
  191.6815  208.8486  251.4023 N   0  0  0  0  0  0
  191.6922  210.2267  251.9201 C   0  0  0  0  0  0
  192.7116  207.9817  251.4994 C   0  0  0  0  0  0
  193.8474  208.2958  252.1401 N   0  3  0  0  0  0
  192.6068  206.7734  250.9426 N   0  0  0  0  0  0
  197.2707  215.0001  257.5188 C   0  0  0  0  0  0
  198.0174  215.8435  258.3356 C   0  0  0  0  0  0
  198.8207  216.8300  257.7637 C   0  0  0  0  0  0
  198.8544  216.9772  256.3753 C   0  0  0  0  0  0
  198.0777  216.1465  255.5632 C   0  0  0  0  0  0
  197.9934  215.6393  259.7445 N   0  0  0  0  0  0
  196.9301  215.6989  260.5558 C   0  0  0  0  0  0
  197.0832  215.3819  261.8252 N   0  0  0  0  0  0
  195.7116  216.0599  260.1791 N   0  3  0  0  0  0
  190.8865  213.6935  248.6983 S   0  0  0  0  0  0
  192.2025  212.8690  249.6524 C   0  0  0  0  0  0
  193.6322  213.4668  249.7389 C   0  0  2  0  0  0
  194.4621  212.5890  250.6012 N   0  0  0  0  0  0
  193.6209  214.9645  250.2467 C   0  0  0  0  0  0
  193.0841  215.1811  251.3597 O   0  0  0  0  0  0
  194.2106  215.7753  249.4951 O   0  5  0  0  0  0
  187.3013  213.3543  253.6622 H   0  0  0  0  0  0
  188.9091  215.3614  252.5969 H   0  0  0  0  0  0
  191.1373  214.0646  252.1676 H   0  0  0  0  0  0
  192.7669  212.6688  252.7399 H   0  0  0  0  0  0
  194.5385  212.9559  253.9433 H   0  0  0  0  0  0
  194.5676  215.0503  255.9960 H   0  0  0  0  0  0
  192.9794  213.9528  257.3934 H   0  0  0  0  0  0
  194.2440  212.6304  259.5372 H   0  0  0  0  0  0
  192.5916  212.1966  261.2672 H   0  0  0  0  0  0
  189.8517  212.9549  260.7659 H   0  0  0  0  0  0
  188.5171  211.7328  262.1847 H   0  0  0  0  0  0
  184.2167  214.1099  252.7122 H   0  0  0  0  0  0
  185.1248  213.7713  254.1926 H   0  0  0  0  0  0
  184.5702  215.4124  253.8500 H   0  0  0  0  0  0
  187.8517  214.0187  250.4382 H   0  0  0  0  0  0
  189.0966  212.8850  250.8599 H   0  0  0  0  0  0
  192.7334  211.0664  254.6066 H   0  0  0  0  0  0
  191.1729  211.5844  255.1192 H   0  0  0  0  0  0
  196.9284  213.2769  255.1315 H   0  0  0  0  0  0
  196.4184  214.6673  254.2286 H   0  0  0  0  0  0
  192.9433  210.4882  259.4980 H   0  0  0  0  0  0
  192.2654  210.9044  257.9228 H   0  0  0  0  0  0
  193.9837  210.5446  258.0971 H   0  0  0  0  0  0
  187.8502  210.0283  263.4438 H   0  0  0  0  0  0
  189.3902  209.5227  261.0249 H   0  0  0  0  0  0
  190.9628  207.1025  261.3630 H   0  0  0  0  0  0
  189.0975  209.4535  265.5084 H   0  0  0  0  0  0
  190.4817  210.3695  264.9839 H   0  0  0  0  0  0
  188.9618  211.2006  265.3416 H   0  0  0  0  0  0
  187.5432  207.7155  260.9787 H   0  0  0  0  0  0
  187.0655  206.0700  260.6434 H   0  0  0  0  0  0
  189.7886  208.5121  258.9291 H   0  0  0  0  0  0
  191.3226  208.9083  259.6545 H   0  0  0  0  0  0
  192.2655  206.6635  259.0190 H   0  0  0  0  0  0
  190.7005  206.2180  258.4332 H   0  0  0  0  0  0
  189.6794  214.1802  262.9267 H   0  0  0  0  0  0
  191.4016  214.1022  263.1639 H   0  0  0  0  0  0
  191.8157  215.6690  261.2921 H   0  0  0  0  0  0
  190.1751  215.4371  260.7603 H   0  0  0  0  0  0
  189.1970  216.6791  262.4896 H   0  0  0  0  0  0
  190.5786  216.6041  263.5452 H   0  0  0  0  0  0
  191.2894  218.5347  262.5285 H   0  0  0  0  0  0
  188.9734  218.5518  259.1860 H   0  0  0  0  0  0
  188.9631  217.1280  260.1824 H   0  0  0  0  0  0
  190.3301  220.3711  259.7679 H   0  0  0  0  0  0
  192.0576  208.6298  257.2402 H   0  0  0  0  0  0
  192.4621  207.0492  256.6562 H   0  0  0  0  0  0
  189.6897  208.2589  256.8491 H   0  0  0  0  0  0
  188.7227  207.2316  253.6789 H   0  0  0  0  0  0
  190.8159  206.4247  253.4186 H   0  0  0  0  0  0
  191.9950  206.5093  254.7102 H   0  0  0  0  0  0
  191.2745  209.3736  253.8932 H   0  0  0  0  0  0
  190.0989  210.5069  253.3153 H   0  0  0  0  0  0
  190.8143  208.5292  250.9809 H   0  0  0  0  0  0
  190.9790  210.7432  251.2796 H   0  0  0  0  0  0
  192.6546  210.7111  251.7624 H   0  0  0  0  0  0
  194.6656  207.6977  252.1137 H   0  0  0  0  0  0
  193.3464  206.0876  251.0005 H   0  0  0  0  0  0
  191.7400  206.4995  250.4837 H   0  0  0  0  0  0
  196.7195  214.2038  257.9894 H   0  0  0  0  0  0
  199.4306  217.4703  258.3830 H   0  0  0  0  0  0
  199.4846  217.7346  255.9280 H   0  0  0  0  0  0
  198.1144  216.2787  254.4912 H   0  0  0  0  0  0
  198.8806  215.4372  260.1865 H   0  0  0  0  0  0
  196.3835  215.6502  262.4994 H   0  0  0  0  0  0
  197.9638  215.0297  262.1729 H   0  0  0  0  0  0
  194.9086  215.7821  260.7206 H   0  0  0  0  0  0
  192.2957  211.8714  249.2229 H   0  0  0  0  0  0
  191.8153  212.7130  250.6495 H   0  0  0  0  0  0
  194.0485  213.4684  248.7285 H   0  0  0  0  0  0
  194.6991  211.7267  250.1225 H   0  0  0  0  0  0
  195.3683  213.0249  250.7257 H   0  0  0  0  0  0
  188.2161  208.0003  255.1631 H   0  0  0  0  0  0
  191.2669  220.3102  261.2355 H   0  0  0  0  0  0
  193.9707  209.2234  252.5188 H   0  0  0  0  0  0
  195.5951  216.5987  259.3344 H   0  0  0  0  0  0
  1  2  1  0  0  0
  1 18  1  0  0  0
  1 19  2  0  0  0
  2  3  1  0  0  0
  2 76  1  0  0  0
  3  4  1  0  0  0
  3 20  1  0  0  0
  3 77  1  0  0  0
  4  5  1  0  0  0
  4 22  2  0  0  0
  5  6  1  0  0  0
  5 78  1  0  0  0
  6  7  1  0  0  0
  6 23  1  0  0  0
  6 79  1  0  0  0
  7  8  1  0  0  0
  7 24  2  0  0  0
  8  9  1  0  0  0
  8 80  1  0  0  0
  9 10  1  0  0  0
  9 25  1  0  0  0
  9 81  1  0  0  0
 10 11  1  0  0  0
 10 27  2  0  0  0
 11 12  1  0  0  0
 11 82  1  0  0  0
 12 13  1  0  0  0
 12 28  1  0  0  0
 12 83  1  0  0  0
 13 14  1  0  0  0
 13 34  2  0  0  0
 14 15  1  0  0  0
 14 84  1  0  0  0
 15 16  1  0  0  0
 15 42  1  0  0  0
 15 85  1  0  0  0
 16 17  1  0  0  0
 16 35  2  0  0  0
 17 29  1  0  0  0
 17 86  1  0  0  0
 18 87  1  0  0  0
 18 88  1  0  0  0
 18 89  1  0  0  0
 20 21  1  0  0  0
 20 90  1  0  0  0
 20 91  1  0  0  0
 21 69  1  0  0  0
 23 54  1  0  0  0
 23 92  1  0  0  0
 23 93  1  0  0  0
 25 26  1  0  0  0
 25 94  1  0  0  0
 25 95  1  0  0  0
 26 60  2  0  0  0
 26 64  1  0  0  0
 28 96  1  0  0  0
 28 97  1  0  0  0
 28 98  1  0  0  0
 29 30  1  0  0  0
 29 36  1  0  0  0
 29 99  1  0  0  0
 30 31  1  0  0  0
 30 37  2  0  0  0
 31 32  1  0  0  0
 31100  1  0  0  0
 32 33  1  0  0  0
 32 40  1  0  0  0
 32101  1  0  0  0
 33 38  1  0  0  0
 33 39  2  0  0  0
 36102  1  0  0  0
 36103  1  0  0  0
 36104  1  0  0  0
 38105  1  0  0  0
 38106  1  0  0  0
 40 41  1  0  0  0
 40107  1  0  0  0
 40108  1  0  0  0
 41 49  1  0  0  0
 41109  1  0  0  0
 41110  1  0  0  0
 42 43  1  0  0  0
 42111  1  0  0  0
 42112  1  0  0  0
 43 44  1  0  0  0
 43113  1  0  0  0
 43114  1  0  0  0
 44 45  1  0  0  0
 44115  1  0  0  0
 44116  1  0  0  0
 45 46  1  0  0  0
 45117  1  0  0  0
 46 47  1  0  0  0
 46 48  2  0  0  0
 47118  1  0  0  0
 47119  1  0  0  0
 48120  1  0  0  0
 48149  1  0  0  0
 49 50  1  0  0  0
 49121  1  0  0  0
 49122  1  0  0  0
 50 51  1  0  0  0
 50123  1  0  0  0
 51 52  2  0  0  0
 51 53  1  0  0  0
 52124  1  0  0  0
 52148  1  0  0  0
 53125  1  0  0  0
 53126  1  0  0  0
 54 56  1  0  0  0
 54127  1  0  0  0
 54128  1  0  0  0
 55 56  1  0  0  0
 55 57  1  0  0  0
 55129  1  0  0  0
 56130  1  0  0  0
 56131  1  0  0  0
 57 58  2  0  0  0
 57 59  1  0  0  0
 58132  1  0  0  0
 58150  1  0  0  0
 59133  1  0  0  0
 59134  1  0  0  0
 60 61  1  0  0  0
 60135  1  0  0  0
 61 62  2  0  0  0
 61 65  1  0  0  0
 62 63  1  0  0  0
 62136  1  0  0  0
 63 64  2  0  0  0
 63137  1  0  0  0
 64138  1  0  0  0
 65 66  1  0  0  0
 65139  1  0  0  0
 66 67  1  0  0  0
 66 68  2  0  0  0
 67140  1  0  0  0
 67141  1  0  0  0
 68142  1  0  0  0
 68151  1  0  0  0
 69 70  1  0  0  0
 70 71  1  0  0  0
 70143  1  0  0  0
 70144  1  0  0  0
 71 73  1  0  0  0
 71 72  1  0  0  0
 71145  1  0  0  0
 72146  1  0  0  0
 72147  1  0  0  0
 73 74  2  0  0  0
 73 75  1  0  0  0
M  CHG  5  48   1  52   1  58   1  68   1  75  -1
M  END
> <s_m_entry_id>
9

> <s_m_entry_name>
070_40.37.1

> <s_pdb_PDB_format_version>
3.0

> <s_m_Source_Path>
/home/xubb/STS005/supp/prime_mmgbsa_070-5

> <s_m_Source_File>
prime_mmgbsa_070-5-out.maegz

> <i_m_Source_File_Index>
9

> <s_psp_Prime_MMGBSA_Input_Structure_Hash>
907e68520ed10f5b8c7848fc947eb6cb241b5ebc5e81c3afbcd61fbb

> <i_psp_number_heavy_atoms>
75

> <b_psp_distorted_structure>
1

> <i_psp_model_num>
0

> <r_psp_Prime_Coulomb>
-43111.5098465985

> <r_psp_Prime_Covalent>
7580.84460873633

> <r_psp_Prime_vdW>
-6868.08420318826

> <r_psp_Prime_Lipo>
-3893.2325452707

> <r_psp_Prime_Solv_GB>
-13177.2510481113

> <r_psp_Prime_Energy>
-60553.7075740908

> <s_psp_Prime_Energy_Force_Field>
S-OPLS

> <s_psp_Prime_Energy_Solvent_Model>
VSGB2.1

> <r_psp_Prime_Bond_Covalent>
956.170445044921

> <r_psp_Prime_Bond_SGB>
111569.528980353

> <r_psp_Prime_Angle_Covalent>
3214.76235340214

> <r_psp_Prime_Angle_SGB>
-44129.3373200737

> <r_psp_Prime_Torsion_Covalent>
3409.91181028927

> <r_psp_Prime_NB14_LJ>
7967.02804496586

> <r_psp_Prime_NB14_Lipo>
0

> <r_psp_Prime_NB14_Elec>
48444.5098720566

> <r_psp_Prime_NB14_SGB>
-41274.5908698857

> <r_psp_Prime_NBShort_LJ>
-14069.5487327242

> <r_psp_Prime_NBShort_Lipo>
-3893.2325452707

> <r_psp_Prime_NBShort_Elec>
-95938.9259698435

> <r_psp_Prime_NBShort_SGB>
45207.7533737115

> <r_psp_Prime_NBLong_LJ>
-765.563515429918

> <r_psp_Prime_NBLong_Lipo>
0

> <r_psp_Prime_NBLong_Elec>
4382.90625118849

> <r_psp_Prime_NBLong_SGB>
-4196.41393911571

> <r_psp_Prime_Self_SGB>
-80354.1912731011

> <r_psp_Prime_Hbond>
-775.572296120776

> <r_psp_Prime_Packing>
-136.843284916609

> <r_psp_Prime_SelfCont>
-172.058958621051

> <s_pdb_PDB_TITLE>
STS005_prime_MMGBSA_result_42

> <s_i_glide_gridfile>
glide-grid_D-site

> <i_i_glide_lignum>
1

> <i_i_glide_rotatable_bonds>
46

> <r_i_docking_score>
-5.56612759507201

> <r_i_glide_ligand_efficiency>
-0.0742150346009601

> <r_i_glide_ligand_efficiency_sa>
-0.312976921744322

> <r_i_glide_ligand_efficiency_ln>
-1.04675882225345

> <r_glide_XP_GScore>
-5.56612759507201

> <r_i_glide_gscore>
-5.56612759507201

> <r_i_glide_evdw>
-41.0227737426758

> <r_i_glide_ecoul>
-35.0783233642578

> <r_i_glide_energy>
-76.1010971069336

> <r_i_glide_einternal>
25.5258979797363

> <r_i_glide_emodel>
-96.0290067037973

> <r_glide_XP_HBond>
-2.74756924617581

> <i_i_glide_confnum>
1

> <i_i_glide_posenum>
46

> <r_i_glide_eff_state_penalty>
0

> <i_glide_XP_PoseRank>
8

> <s_psp_MMGBSA_moved_residues>


> <r_psp_MMGBSA_dG_Bind>
-40.3680378829231

> <r_psp_MMGBSA_dG_Bind_Coulomb>
-487.801175483713

> <r_psp_MMGBSA_dG_Bind_Covalent>
13.2475298793834

> <r_psp_MMGBSA_dG_Bind_Hbond>
-7.74956034587899

> <r_psp_MMGBSA_dG_Bind_Lipo>
-6.86173113297991

> <r_psp_MMGBSA_dG_Bind_Packing>
-0.834153391899122

> <r_psp_MMGBSA_dG_Bind_SelfCont>
0

> <r_psp_MMGBSA_dG_Bind_Solv_GB>
504.516924251991

> <r_psp_MMGBSA_dG_Bind_vdW>
-54.8858716598188

> <r_psp_Lig_Strain_Energy>
30.9833946629728

> <r_psp_Lig_Strain_Coulomb>
32.5954896815186

> <r_psp_Lig_Strain_Covalent>
13.247529879383

> <r_psp_Lig_Strain_Hbond>
0

> <r_psp_Lig_Strain_Lipo>
2.5138770159808

> <r_psp_Lig_Strain_Packing>
0

> <r_psp_Lig_Strain_SelfCont>
0

> <r_psp_Lig_Strain_Solv_GB>
-27.5207819479019

> <r_psp_Lig_Strain_vdW>
10.1472800339921

> <r_psp_Ligand_Energy>
-306.464813302487

> <r_psp_Ligand_Coulomb>
-153.418610780699

> <r_psp_Ligand_Covalent>
31.8449028591748

> <r_psp_Ligand_Hbond>
0

> <r_psp_Ligand_Lipo>
-9.32205207591215

> <r_psp_Ligand_Packing>
0

> <r_psp_Ligand_SelfCont>
0

> <r_psp_Ligand_Solv_GB>
-185.420321741388

> <r_psp_Ligand_vdW>
9.85126843633761

> <r_psp_Complex_Energy>
-60553.7075740908

> <r_psp_Complex_Coulomb>
-43111.5098465985

> <r_psp_Complex_Covalent>
7580.84460873633

> <r_psp_Complex_Hbond>
-775.572296120776

> <r_psp_Complex_Lipo>
-3893.2325452707

> <r_psp_Complex_Packing>
-136.843284916609

> <r_psp_Complex_SelfCont>
-172.058958621051

> <r_psp_Complex_Solv_GB>
-13177.2510481113

> <r_psp_Complex_vdW>
-6868.08420318826

> <r_psp_Receptor_Energy>
-60206.8747229054

> <r_psp_Receptor_Coulomb>
-42470.290060334

> <r_psp_Receptor_Covalent>
7535.75217599777

> <r_psp_Receptor_Hbond>
-767.822735774897

> <r_psp_Receptor_Lipo>
-3877.04876206181

> <r_psp_Receptor_Packing>
-136.00913152471

> <r_psp_Receptor_SelfCont>
-172.058958621051

> <r_psp_Receptor_Solv_GB>
-13496.3476506219

> <r_psp_Receptor_vdW>
-6823.04959996478

> <r_psp_MMGBSA_dG_Bind(NS)>
-71.3514325458964

> <r_psp_MMGBSA_dG_Bind(NS)_Coulomb>
-520.39666516523

> <r_psp_MMGBSA_dG_Bind(NS)_Covalent>
0

> <r_psp_MMGBSA_dG_Bind(NS)_Hbond>
-7.74956034587899

> <r_psp_MMGBSA_dG_Bind(NS)_Lipo>
-9.37560814896096

> <r_psp_MMGBSA_dG_Bind(NS)_Packing>
-0.834153391899122

> <r_psp_MMGBSA_dG_Bind(NS)_SelfCont>
0

> <r_psp_MMGBSA_dG_Bind(NS)_Solv_GB>
532.037706199893

> <r_psp_MMGBSA_dG_Bind(NS)_vdW>
-65.0331516938104

> <r_psp_Rec_Strain_Energy>
0

> <r_psp_Rec_Strain_Coulomb>
0

> <r_psp_Rec_Strain_Covalent>
0

> <r_psp_Rec_Strain_Hbond>
0

> <r_psp_Rec_Strain_Lipo>
0

> <r_psp_Rec_Strain_Packing>
0

> <r_psp_Rec_Strain_SelfCont>
0

> <r_psp_Rec_Strain_Solv_GB>
0

> <r_psp_Rec_Strain_vdW>
0

> <r_psp_Prime_MMGBSA_ligand_efficiency>
-0.538240505105641

> <r_psp_Prime_MMGBSA_ligand_efficiency_sa>
-0.807360757658462

> <r_psp_Prime_MMGBSA_ligand_efficiency_ln>
-7.59156147056753

> <s_m_subgroup_title>
prime_mmgbsa_070-5-out

> <s_m_subgroupid>
prime_mmgbsa_070-5-out

> <b_m_subgroup_collapsed>
0

$$$$
