STS005_prime_MMGBSA_result_43
                    3D
 Schrodinger Suite 2021-2.
161162  0  0  1  0            999 V2000
  194.1389  209.9877  247.7649 C   0  0  0  0  0  0
  193.7775  210.5135  248.9385 N   0  0  0  0  0  0
  193.2589  211.8639  249.1121 C   0  0  1  0  0  0
  192.3561  211.8512  250.3510 C   0  0  0  0  0  0
  191.4038  212.7911  250.3954 N   0  0  0  0  0  0
  190.3807  212.8836  251.4326 C   0  0  1  0  0  0
  190.9564  213.2860  252.7926 C   0  0  0  0  0  0
  190.3277  212.7616  253.8441 N   0  0  0  0  0  0
  190.5997  213.0851  255.2301 C   0  0  1  0  0  0
  189.2659  213.0250  255.9830 C   0  0  0  0  0  0
  189.1854  213.8334  257.0363 N   0  0  0  0  0  0
  188.2016  213.7507  258.1147 C   0  0  1  0  0  0
  188.8497  214.3683  259.3691 C   0  0  0  0  0  0
  190.1596  214.1129  259.5079 N   0  0  0  0  0  0
  191.0829  214.7038  260.4718 C   0  0  1  0  0  0
  192.3751  213.8598  260.4552 C   0  0  0  0  0  0
  192.2316  212.5292  260.4787 N   0  0  0  0  0  0
  194.5419  208.5237  247.7385 C   0  0  0  0  0  0
  194.1441  210.6401  246.7244 O   0  0  0  0  0  0
  194.4240  212.8716  249.2005 C   0  0  0  0  0  0
  193.9467  214.6194  249.3232 S   0  0  0  0  0  0
  192.5222  210.9820  251.2098 O   0  0  0  0  0  0
  189.2630  213.8485  250.9692 C   0  0  0  0  0  0
  191.8835  214.0928  252.8637 O   0  0  0  0  0  0
  191.6791  212.1645  255.8716 C   0  0  0  0  0  0
  191.3808  210.6691  255.7558 C   0  0  0  0  0  0
  188.3803  212.2483  255.6252 O   0  0  0  0  0  0
  186.7758  214.2627  257.7578 C   0  0  0  0  0  0
  193.3409  211.5807  260.4993 C   0  0  1  0  0  0
  192.7541  210.2258  260.8783 C   0  0  0  0  0  0
  193.1124  209.7231  262.0630 N   0  0  0  0  0  0
  192.7646  208.3909  262.5697 C   0  0  1  0  0  0
  193.9328  207.8441  263.4196 C   0  0  0  0  0  0
  188.2088  215.0890  260.1287 O   0  0  0  0  0  0
  193.4730  214.4056  260.3667 O   0  0  0  0  0  0
  194.0468  211.5053  259.1295 C   0  0  0  0  0  0
  191.9673  209.6917  260.0995 O   0  0  0  0  0  0
  193.9902  206.5438  263.6507 N   0  0  0  0  0  0
  194.7787  208.5968  263.8888 O   0  0  0  0  0  0
  191.4414  208.3982  263.3849 C   0  0  0  0  0  0
  190.2679  209.1712  262.7548 C   0  0  0  0  0  0
  191.2993  216.2124  260.1494 C   0  0  0  0  0  0
  192.2498  216.9658  261.1110 C   0  0  0  0  0  0
  193.4347  217.6449  260.3909 C   0  0  0  0  0  0
  194.4628  218.1486  261.3215 N   0  0  0  0  0  0
  195.5305  217.4717  261.7962 C   0  0  0  0  0  0
  195.7695  216.1885  261.4811 N   0  0  0  0  0  0
  196.3809  218.0866  262.6259 N   0  3  0  0  0  0
  188.9219  208.9341  263.4599 C   0  0  0  0  0  0
  187.9758  210.0245  263.1650 N   0  0  0  0  0  0
  187.8399  211.1575  263.8850 C   0  0  0  0  0  0
  186.9970  212.1071  263.4686 N   0  3  0  0  0  0
  188.5374  211.3768  265.0130 N   0  0  0  0  0  0
  188.0282  213.8871  251.8959 C   0  0  0  0  0  0
  185.6070  214.4617  252.0552 N   0  0  0  0  0  0
  186.8531  214.6803  251.3000 C   0  0  0  0  0  0
  184.3866  214.9586  251.7717 C   0  0  0  0  0  0
  184.1858  215.8189  250.7615 N   0  3  0  0  0  0
  183.3384  214.5757  252.5121 N   0  0  0  0  0  0
  186.7548  215.5612  256.9631 C   0  0  0  0  0  0
  186.7718  216.7949  257.6186 C   0  0  0  0  0  0
  186.7444  217.9612  256.8519 C   0  0  0  0  0  0
  186.7007  217.9497  255.4947 N   0  0  0  0  0  0
  186.6823  216.7441  254.8714 C   0  0  0  0  0  0
  186.7074  215.5329  255.5653 C   0  0  0  0  0  0
  191.6325  209.9962  254.5550 C   0  0  0  0  0  0
  191.3255  208.6389  254.4245 C   0  0  0  0  0  0
  190.7529  207.9512  255.4986 C   0  0  0  0  0  0
  190.5213  208.6124  256.7063 C   0  0  0  0  0  0
  190.8383  209.9648  256.8367 C   0  0  0  0  0  0
  191.5433  207.9632  253.1864 N   0  0  0  0  0  0
  192.6939  207.7996  252.5228 C   0  0  0  0  0  0
  193.8690  208.2627  252.9282 N   0  0  0  0  0  0
  192.6658  207.1122  251.3972 N   0  3  0  0  0  0
  195.6095  215.6275  248.7342 S   0  0  0  0  0  0
  196.6924  215.5488  250.1861 C   0  0  0  0  0  0
  197.9665  216.4355  250.1069 C   0  0  2  0  0  0
  199.0991  215.8588  250.9050 N   0  3  0  0  0  0
  197.7495  217.9263  250.5788 C   0  0  0  0  0  0
  198.7603  218.5433  250.9872 O   0  0  0  0  0  0
  196.6121  218.4017  250.3674 O   0  5  0  0  0  0
  193.7319  209.9657  249.7915 H   0  0  0  0  0  0
  192.6377  212.1108  248.2482 H   0  0  0  0  0  0
  191.4126  213.5171  249.6976 H   0  0  0  0  0  0
  189.9619  211.8845  251.5461 H   0  0  0  0  0  0
  189.5578  212.1152  253.7214 H   0  0  0  0  0  0
  190.9546  214.1176  255.2738 H   0  0  0  0  0  0
  189.8943  214.5376  257.1750 H   0  0  0  0  0  0
  188.0957  212.6960  258.3570 H   0  0  0  0  0  0
  190.5772  213.4503  258.8719 H   0  0  0  0  0  0
  190.6462  214.6150  261.4687 H   0  0  0  0  0  0
  191.3153  212.1071  260.5611 H   0  0  0  0  0  0
  193.8067  207.9485  247.1767 H   0  0  0  0  0  0
  195.5065  208.4188  247.2419 H   0  0  0  0  0  0
  194.6146  208.1048  248.7417 H   0  0  0  0  0  0
  195.0441  212.7699  248.3086 H   0  0  0  0  0  0
  195.0654  212.6260  250.0482 H   0  0  0  0  0  0
  189.6664  214.8571  250.8618 H   0  0  0  0  0  0
  188.9364  213.5423  249.9752 H   0  0  0  0  0  0
  192.6439  212.3468  255.3942 H   0  0  0  0  0  0
  191.8546  212.4260  256.9156 H   0  0  0  0  0  0
  186.2735  213.5019  257.1588 H   0  0  0  0  0  0
  186.1537  214.3571  258.6516 H   0  0  0  0  0  0
  194.0628  211.8944  261.2567 H   0  0  0  0  0  0
  193.8056  210.1936  262.6310 H   0  0  0  0  0  0
  192.6394  207.7339  261.7081 H   0  0  0  0  0  0
  194.8704  210.7915  259.1599 H   0  0  0  0  0  0
  193.3680  211.1750  258.3428 H   0  0  0  0  0  0
  194.4664  212.4668  258.8343 H   0  0  0  0  0  0
  193.3708  205.9054  263.1688 H   0  0  0  0  0  0
  194.7388  206.2011  264.2277 H   0  0  0  0  0  0
  191.1449  207.3654  263.5770 H   0  0  0  0  0  0
  191.6345  208.8353  264.3655 H   0  0  0  0  0  0
  190.4905  210.2352  262.6611 H   0  0  0  0  0  0
  190.1642  208.7933  261.7358 H   0  0  0  0  0  0
  191.6619  216.3062  259.1251 H   0  0  0  0  0  0
  190.3351  216.7232  260.1601 H   0  0  0  0  0  0
  191.6482  217.7567  261.5640 H   0  0  0  0  0  0
  192.5744  216.3506  261.9491 H   0  0  0  0  0  0
  193.8470  217.0424  259.5807 H   0  0  0  0  0  0
  193.0573  218.5535  259.9208 H   0  0  0  0  0  0
  194.3017  219.0824  261.6773 H   0  0  0  0  0  0
  196.5715  215.7030  261.8591 H   0  0  0  0  0  0
  195.1109  215.6733  260.9071 H   0  0  0  0  0  0
  197.1191  217.5656  263.0891 H   0  0  0  0  0  0
  188.4521  208.0597  263.0068 H   0  0  0  0  0  0
  189.0210  208.6994  264.5202 H   0  0  0  0  0  0
  187.4979  209.9628  262.2687 H   0  0  0  0  0  0
  186.8822  212.9641  263.9881 H   0  0  0  0  0  0
  188.4253  212.2334  265.5350 H   0  0  0  0  0  0
  189.2006  210.6881  265.3372 H   0  0  0  0  0  0
  187.7246  212.8875  252.2112 H   0  0  0  0  0  0
  188.3377  214.4039  252.8061 H   0  0  0  0  0  0
  185.6874  213.8318  252.8416 H   0  0  0  0  0  0
  187.0657  215.7431  251.4218 H   0  0  0  0  0  0
  186.7346  214.5049  250.2303 H   0  0  0  0  0  0
  183.2646  216.1781  250.5576 H   0  0  0  0  0  0
  182.4164  214.9408  252.3213 H   0  0  0  0  0  0
  183.4369  213.8791  253.2415 H   0  0  0  0  0  0
  186.8038  216.8463  258.6985 H   0  0  0  0  0  0
  186.7554  218.9328  257.3261 H   0  0  0  0  0  0
  186.6459  216.7665  253.7921 H   0  0  0  0  0  0
  186.6966  214.5902  255.0372 H   0  0  0  0  0  0
  192.0485  210.5393  253.7161 H   0  0  0  0  0  0
  190.4811  206.9080  255.4135 H   0  0  0  0  0  0
  190.0868  208.0813  257.5422 H   0  0  0  0  0  0
  190.6385  210.4557  257.7789 H   0  0  0  0  0  0
  190.7550  207.4622  252.7906 H   0  0  0  0  0  0
  194.7058  208.1605  252.3655 H   0  0  0  0  0  0
  193.9117  208.7976  253.7815 H   0  0  0  0  0  0
  193.4964  206.6450  251.0687 H   0  0  0  0  0  0
  196.9776  214.4992  250.2700 H   0  0  0  0  0  0
  196.1117  215.7672  251.0847 H   0  0  0  0  0  0
  198.3641  216.4539  249.0914 H   0  0  0  0  0  0
  199.9107  216.4499  250.7962 H   0  0  0  0  0  0
  198.8284  215.8047  251.8761 H   0  0  0  0  0  0
  186.4702  212.0106  262.6024 H   0  0  0  0  0  0
  196.2098  219.0329  262.9585 H   0  0  0  0  0  0
  184.9597  216.1179  250.1864 H   0  0  0  0  0  0
  191.7783  206.9430  250.9331 H   0  0  0  0  0  0
  199.3038  214.9333  250.5504 H   0  0  0  0  0  0
  1  2  1  0  0  0
  1 18  1  0  0  0
  1 19  2  0  0  0
  2  3  1  0  0  0
  2 82  1  0  0  0
  3  4  1  0  0  0
  3 20  1  0  0  0
  3 83  1  0  0  0
  4  5  1  0  0  0
  4 22  2  0  0  0
  5  6  1  0  0  0
  5 84  1  0  0  0
  6  7  1  0  0  0
  6 23  1  0  0  0
  6 85  1  0  0  0
  7  8  1  0  0  0
  7 24  2  0  0  0
  8  9  1  0  0  0
  8 86  1  0  0  0
  9 10  1  0  0  0
  9 25  1  0  0  0
  9 87  1  0  0  0
 10 11  1  0  0  0
 10 27  2  0  0  0
 11 12  1  0  0  0
 11 88  1  0  0  0
 12 13  1  0  0  0
 12 28  1  0  0  0
 12 89  1  0  0  0
 13 14  1  0  0  0
 13 34  2  0  0  0
 14 15  1  0  0  0
 14 90  1  0  0  0
 15 16  1  0  0  0
 15 42  1  0  0  0
 15 91  1  0  0  0
 16 17  1  0  0  0
 16 35  2  0  0  0
 17 29  1  0  0  0
 17 92  1  0  0  0
 18 93  1  0  0  0
 18 94  1  0  0  0
 18 95  1  0  0  0
 20 21  1  0  0  0
 20 96  1  0  0  0
 20 97  1  0  0  0
 21 75  1  0  0  0
 23 54  1  0  0  0
 23 98  1  0  0  0
 23 99  1  0  0  0
 25 26  1  0  0  0
 25100  1  0  0  0
 25101  1  0  0  0
 26 66  2  0  0  0
 26 70  1  0  0  0
 28 60  1  0  0  0
 28102  1  0  0  0
 28103  1  0  0  0
 29 30  1  0  0  0
 29 36  1  0  0  0
 29104  1  0  0  0
 30 31  1  0  0  0
 30 37  2  0  0  0
 31 32  1  0  0  0
 31105  1  0  0  0
 32 33  1  0  0  0
 32 40  1  0  0  0
 32106  1  0  0  0
 33 38  1  0  0  0
 33 39  2  0  0  0
 36107  1  0  0  0
 36108  1  0  0  0
 36109  1  0  0  0
 38110  1  0  0  0
 38111  1  0  0  0
 40 41  1  0  0  0
 40112  1  0  0  0
 40113  1  0  0  0
 41 49  1  0  0  0
 41114  1  0  0  0
 41115  1  0  0  0
 42 43  1  0  0  0
 42116  1  0  0  0
 42117  1  0  0  0
 43 44  1  0  0  0
 43118  1  0  0  0
 43119  1  0  0  0
 44 45  1  0  0  0
 44120  1  0  0  0
 44121  1  0  0  0
 45 46  1  0  0  0
 45122  1  0  0  0
 46 47  1  0  0  0
 46 48  2  0  0  0
 47123  1  0  0  0
 47124  1  0  0  0
 48125  1  0  0  0
 48158  1  0  0  0
 49 50  1  0  0  0
 49126  1  0  0  0
 49127  1  0  0  0
 50 51  1  0  0  0
 50128  1  0  0  0
 51 52  2  0  0  0
 51 53  1  0  0  0
 52129  1  0  0  0
 52157  1  0  0  0
 53130  1  0  0  0
 53131  1  0  0  0
 54 56  1  0  0  0
 54132  1  0  0  0
 54133  1  0  0  0
 55 56  1  0  0  0
 55 57  1  0  0  0
 55134  1  0  0  0
 56135  1  0  0  0
 56136  1  0  0  0
 57 58  2  0  0  0
 57 59  1  0  0  0
 58137  1  0  0  0
 58159  1  0  0  0
 59138  1  0  0  0
 59139  1  0  0  0
 60 61  2  0  0  0
 60 65  1  0  0  0
 61 62  1  0  0  0
 61140  1  0  0  0
 62 63  2  0  0  0
 62141  1  0  0  0
 63 64  1  0  0  0
 64 65  2  0  0  0
 64142  1  0  0  0
 65143  1  0  0  0
 66 67  1  0  0  0
 66144  1  0  0  0
 67 68  2  0  0  0
 67 71  1  0  0  0
 68 69  1  0  0  0
 68145  1  0  0  0
 69 70  2  0  0  0
 69146  1  0  0  0
 70147  1  0  0  0
 71 72  1  0  0  0
 71148  1  0  0  0
 72 73  1  0  0  0
 72 74  2  0  0  0
 73149  1  0  0  0
 73150  1  0  0  0
 74151  1  0  0  0
 74160  1  0  0  0
 75 76  1  0  0  0
 76 77  1  0  0  0
 76152  1  0  0  0
 76153  1  0  0  0
 77 79  1  0  0  0
 77 78  1  0  0  0
 77154  1  0  0  0
 78155  1  0  0  0
 78156  1  0  0  0
 78161  1  0  0  0
 79 80  2  0  0  0
 79 81  1  0  0  0
M  CHG  6  48   1  52   1  58   1  74   1  78   1  81  -1
M  END
> <s_m_entry_id>
25

> <s_m_entry_name>
STS005_prime_MMGBSA_result_071.1

> <s_m_Source_Path>
/home/xubb/STS005/supp/prime_mmgbsa_071

> <s_m_Source_File>
prime_mmgbsa_071-out.maegz

> <i_m_Source_File_Index>
11

> <s_psp_Prime_MMGBSA_Input_Structure_Hash>
a6ad81b8d423af8b1fc522c7004bcb54f3d4f1d20e347f4ae887f0e2

> <i_psp_number_heavy_atoms>
81

> <b_psp_distorted_structure>
1

> <i_psp_model_num>
0

> <r_psp_Prime_Coulomb>
-43214.1247322271

> <r_psp_Prime_Covalent>
7581.85417686355

> <r_psp_Prime_vdW>
-6865.95568706223

> <r_psp_Prime_Lipo>
-3893.4421151648

> <r_psp_Prime_Solv_GB>
-13105.5933188223

> <r_psp_Prime_Energy>
-60582.8709811885

> <s_psp_Prime_Energy_Force_Field>
S-OPLS

> <s_psp_Prime_Energy_Solvent_Model>
VSGB2.1

> <r_psp_Prime_Bond_Covalent>
957.163879773821

> <r_psp_Prime_Bond_SGB>
111489.021805251

> <r_psp_Prime_Angle_Covalent>
3212.00685816944

> <r_psp_Prime_Angle_SGB>
-44134.0830665279

> <r_psp_Prime_Torsion_Covalent>
3412.68343892028

> <r_psp_Prime_NB14_LJ>
7978.26487307924

> <r_psp_Prime_NB14_Lipo>
0

> <r_psp_Prime_NB14_Elec>
48366.7107100638

> <r_psp_Prime_NB14_SGB>
-41206.9292690797

> <r_psp_Prime_NBShort_LJ>
-14079.1194988055

> <r_psp_Prime_NBShort_Lipo>
-3893.4421151648

> <r_psp_Prime_NBShort_Elec>
-96002.4974543801

> <r_psp_Prime_NBShort_SGB>
45282.8330928277

> <r_psp_Prime_NBLong_LJ>
-765.101061336004

> <r_psp_Prime_NBLong_Lipo>
0

> <r_psp_Prime_NBLong_Elec>
4421.66201208915

> <r_psp_Prime_NBLong_SGB>
-4236.01817283189

> <r_psp_Prime_Self_SGB>
-80300.4177084617

> <r_psp_Prime_Hbond>
-777.420138819817

> <r_psp_Prime_Packing>
-136.130207334773

> <r_psp_Prime_SelfCont>
-172.058958621051

> <s_i_glide_gridfile>
glide-grid_D-site

> <i_i_glide_lignum>
1

> <i_i_glide_rotatable_bonds>
48

> <r_i_docking_score>
-3.87661909840198

> <r_i_glide_ligand_efficiency>
-0.0478594950419997

> <r_i_glide_ligand_efficiency_sa>
-0.207076008175033

> <r_i_glide_ligand_efficiency_ln>
-0.718631131233152

> <r_glide_XP_GScore>
-3.89101909840198

> <r_i_glide_gscore>
-3.89101909840198

> <r_i_glide_evdw>
-41.0913391113281

> <r_i_glide_ecoul>
-31.8435001373291

> <r_i_glide_energy>
-72.9348392486572

> <r_i_glide_einternal>
19.1684951782227

> <r_i_glide_emodel>
-92.6804275512695

> <r_glide_XP_HBond>
-2.37382365495078

> <i_i_glide_confnum>
1

> <i_i_glide_posenum>
15

> <r_i_glide_eff_state_penalty>
0.0144

> <i_glide_XP_PoseRank>
10

> <s_psp_MMGBSA_moved_residues>


> <r_psp_MMGBSA_dG_Bind>
-48.1086008733109

> <r_psp_MMGBSA_dG_Bind_Coulomb>
-599.823592495188

> <r_psp_MMGBSA_dG_Bind_Covalent>
3.95157023982938

> <r_psp_MMGBSA_dG_Bind_Hbond>
-9.59740304491993

> <r_psp_MMGBSA_dG_Bind_Lipo>
-2.1773358594105

> <r_psp_MMGBSA_dG_Bind_Packing>
-0.121075810063246

> <r_psp_MMGBSA_dG_Bind_SelfCont>
0

> <r_psp_MMGBSA_dG_Bind_Solv_GB>
610.742623362341

> <r_psp_MMGBSA_dG_Bind_vdW>
-51.0833872658804

> <r_psp_Lig_Strain_Energy>
26.8474069914574

> <r_psp_Lig_Strain_Coulomb>
4.61318697582755

> <r_psp_Lig_Strain_Covalent>
3.95157023982831

> <r_psp_Lig_Strain_Hbond>
0

> <r_psp_Lig_Strain_Lipo>
6.53643862089134

> <r_psp_Lig_Strain_Packing>
0

> <r_psp_Lig_Strain_SelfCont>
0

> <r_psp_Lig_Strain_Solv_GB>
-5.64774617300213

> <r_psp_Lig_Strain_vdW>
17.3939573279121

> <r_psp_Ligand_Energy>
-327.887657409828

> <r_psp_Ligand_Coulomb>
-144.011079397837

> <r_psp_Ligand_Covalent>
42.1504306259427

> <r_psp_Ligand_Hbond>
0

> <r_psp_Ligand_Lipo>
-14.2160172435859

> <r_psp_Ligand_Packing>
0

> <r_psp_Ligand_SelfCont>
0

> <r_psp_Ligand_Solv_GB>
-219.988291562782

> <r_psp_Ligand_vdW>
8.17730016843429

> <r_psp_Complex_Energy>
-60582.8709811885

> <r_psp_Complex_Coulomb>
-43214.1247322271

> <r_psp_Complex_Covalent>
7581.85417686355

> <r_psp_Complex_Hbond>
-777.420138819817

> <r_psp_Complex_Lipo>
-3893.4421151648

> <r_psp_Complex_Packing>
-136.130207334773

> <r_psp_Complex_SelfCont>
-172.058958621051

> <r_psp_Complex_Solv_GB>
-13105.5933188223

> <r_psp_Complex_vdW>
-6865.95568706223

> <r_psp_Receptor_Energy>
-60206.8747229054

> <r_psp_Receptor_Coulomb>
-42470.290060334

> <r_psp_Receptor_Covalent>
7535.75217599777

> <r_psp_Receptor_Hbond>
-767.822735774897

> <r_psp_Receptor_Lipo>
-3877.04876206181

> <r_psp_Receptor_Packing>
-136.00913152471

> <r_psp_Receptor_SelfCont>
-172.058958621051

> <r_psp_Receptor_Solv_GB>
-13496.3476506219

> <r_psp_Receptor_vdW>
-6823.04959996478

> <r_psp_MMGBSA_dG_Bind(NS)>
-74.9560078647628

> <r_psp_MMGBSA_dG_Bind(NS)_Coulomb>
-604.43677947102

> <r_psp_MMGBSA_dG_Bind(NS)_Covalent>
1.81898940354586e-12

> <r_psp_MMGBSA_dG_Bind(NS)_Hbond>
-9.59740304491993

> <r_psp_MMGBSA_dG_Bind(NS)_Lipo>
-8.71377448030216

> <r_psp_MMGBSA_dG_Bind(NS)_Packing>
-0.121075810063246

> <r_psp_MMGBSA_dG_Bind(NS)_SelfCont>
0

> <r_psp_MMGBSA_dG_Bind(NS)_Solv_GB>
616.390369535344

> <r_psp_MMGBSA_dG_Bind(NS)_vdW>
-68.4773445937926

> <r_psp_Rec_Strain_Energy>
0

> <r_psp_Rec_Strain_Coulomb>
0

> <r_psp_Rec_Strain_Covalent>
0

> <r_psp_Rec_Strain_Hbond>
0

> <r_psp_Rec_Strain_Lipo>
0

> <r_psp_Rec_Strain_Packing>
0

> <r_psp_Rec_Strain_SelfCont>
0

> <r_psp_Rec_Strain_Solv_GB>
0

> <r_psp_Rec_Strain_vdW>
0

> <r_psp_Prime_MMGBSA_ligand_efficiency>
-0.59393334411495

> <r_psp_Prime_MMGBSA_ligand_efficiency_sa>
-0.890900016172425

> <r_psp_Prime_MMGBSA_ligand_efficiency_ln>
-8.91816745211906

> <i_lp_mmshare_version>
54117

> <s_epik_input>
Tz1DKFtPSF0pW0NAQEhdKFtOSDJdKVtDSDJdU1NbQ0gyXVtDQEBIXShbTkhdQyg9TylbQ0gzXSlDKD1PKVtOSF1bQ0BIXShbQ0gyXVtDSDJdW0NIMl1bTkhdL0MoPU4vW0hdKVtOSDJdKUMoPU8pW05IXVtDQEhdKFtDSDJdYzFbY0hdYyhbY0hdW2NIXVtjSF0xKVtOSF0vQyhbTkgyXSk9Ti9bSF0pQyg9TylbTkhdW0NASF0oW0NIMl1jMltjSF1bY0hdbltjSF1bY0hdMilDKD1PKVtOSF1bQ0BIXShbQ0gyXVtDSDJdW0NIMl1bTkhdL0MoW05IMl0pPU4vW0hdKUMoPU8pW05IXVtDQEhdKFtDSDNdKUMoPU8pW05IXVtDQEBIXShDKD1PKVtOSDJdKVtDSDJdW0NIMl1bQ0gyXVtOSF0vQyg9Ti9bSF0pW05IMl0=

> <s_epik_cmdline>
J2VwaWtfcHl0aG9uJywgJy1waCcsICc3LjAnLCAnLXRuJywgJzgnLCAnLW1hJywgJzUwMCcsICctaW1hZScsICc8aW5maWxlLm1hZT4nLCAnLW9tYWUnLCAnPG91dGZpbGUubWFlPic=

> <r_epik_Ionization_Penalty>
  0.0261

> <r_epik_Ionization_Penalty_Charging>
  0.0182

> <r_epik_Ionization_Penalty_Neutral>
  0.0079

> <r_epik_State_Penalty>
  0.0144

> <r_epik_Charging_Adjusted_Penalty>
0.0326163508838604

> <i_epik_Tot_Q>
4

> <i_epik_Tot_abs_Q>
6

> <s_epik_Chemistry_Notes>
This compound has an imine and may undergo hydrolysis.

> <i_f3d_flags>
0

> <s_lp_Force_Field>
S-OPLS

> <r_lp_Energy>
26.218123

> <b_lp_Chiralities_Consistent>
1

> <s_lp_Variant>
071-1

> <Name>
71

> <s_m_subgroup_title>
prime_mmgbsa_071-out

> <s_m_subgroupid>
prime_mmgbsa_071-out

> <b_m_subgroup_collapsed>
0

$$$$
