STS005_prime_MMGBSA_result_51
                    3D
 Schrodinger Suite 2021-3.
155155  0  0  1  0            999 V2000
  196.7446  215.0146  247.8778 C   0  0  0  0  0  0
  197.5756  215.1092  248.9213 N   0  0  0  0  0  0
  197.5063  216.1318  249.9629 C   0  0  1  0  0  0
  196.3322  215.8170  250.8961 C   0  0  0  0  0  0
  195.5445  216.8435  251.2080 N   0  0  0  0  0  0
  194.3927  216.7671  252.0813 C   0  0  1  0  0  0
  194.1825  218.1483  252.7045 C   0  0  0  0  0  0
  193.5236  218.1542  253.8636 N   0  0  0  0  0  0
  192.8713  219.3213  254.4445 C   0  0  1  0  0  0
  191.4177  218.8481  254.6619 C   0  0  0  0  0  0
  190.9173  218.7975  255.9023 N   0  0  0  0  0  0
  189.7605  217.9783  256.2760 C   0  0  1  0  0  0
  190.2029  216.5036  256.4306 C   0  0  0  0  0  0
  190.7736  215.9420  255.3605 N   0  0  0  0  0  0
  191.2237  214.5606  255.2881 C   0  0  1  0  0  0
  190.1675  213.8256  254.4619 C   0  0  0  0  0  0
  189.1521  213.2852  255.1407 N   0  0  0  0  0  0
  196.8865  213.7955  246.9783 C   0  0  0  0  0  0
  195.8958  215.8665  247.6260 O   0  0  0  0  0  0
  198.8285  216.1619  250.7624 C   0  0  0  0  0  0
  199.4082  217.8141  251.2471 S   0  0  0  0  0  0
  196.1959  214.6766  251.3432 O   0  0  0  0  0  0
  193.1306  216.2684  251.3329 C   0  0  0  0  0  0
  194.5668  219.1560  252.1094 O   0  0  0  0  0  0
  193.6791  219.9500  255.6302 C   0  0  0  0  0  0
  190.8102  218.3841  253.6964 O   0  0  0  0  0  0
  189.1081  218.5464  257.5572 C   0  0  0  0  0  0
  188.0826  212.5066  254.5168 C   0  0  1  0  0  0
  188.3821  210.9982  254.5902 C   0  0  0  0  0  0
  189.6486  210.6269  254.3712 N   0  0  0  0  0  0
  190.1355  209.2579  254.1752 C   0  0  1  0  0  0
  191.3009  209.3092  253.1632 C   0  0  0  0  0  0
  190.0706  215.9203  257.5053 O   0  0  0  0  0  0
  190.2804  213.7846  253.2378 O   0  0  0  0  0  0
  187.4744  210.2086  254.8320 O   0  0  0  0  0  0
  191.3231  208.4473  252.1623 N   0  0  0  0  0  0
  192.2139  210.1153  253.3100 O   0  0  0  0  0  0
  190.6046  208.6215  255.5095 C   0  0  0  0  0  0
  189.5458  208.5389  256.6284 C   0  0  0  0  0  0
  192.6397  214.5086  254.6622 C   0  0  0  0  0  0
  193.2106  213.0866  254.4930 C   0  0  0  0  0  0
  194.5163  213.0277  253.6806 C   0  0  0  0  0  0
  195.1074  211.6777  253.7054 N   0  0  0  0  0  0
  195.9536  211.1826  254.6289 C   0  0  0  0  0  0
  196.3980  211.9258  255.6537 N   0  0  0  0  0  0
  196.3807  209.9188  254.5165 N   0  3  0  0  0  0
  190.0039  207.6460  257.7958 C   0  0  0  0  0  0
  189.1262  207.7531  258.9741 N   0  0  0  0  0  0
  189.1422  206.9759  260.0753 C   0  0  0  0  0  0
  188.2903  207.2444  261.0714 N   0  3  0  0  0  0
  189.9928  205.9490  260.2117 N   0  0  0  0  0  0
  187.6425  218.0927  257.7627 C   0  0  0  0  0  0
  187.2630  217.7788  259.2230 C   0  0  0  0  0  0
  187.7770  216.4649  259.6592 N   0  0  0  0  0  0
  187.0989  215.2987  259.6904 C   0  0  0  0  0  0
  185.8059  215.2143  259.3425 N   0  0  0  0  0  0
  187.7301  214.1839  260.0822 N   0  3  0  0  0  0
  193.4995  219.3209  257.0135 C   0  0  0  0  0  0
  193.0264  220.1116  258.0674 C   0  0  0  0  0  0
  192.7090  219.5391  259.3043 C   0  0  0  0  0  0
  192.9209  218.1719  259.5003 C   0  0  0  0  0  0
  193.4383  217.3865  258.4679 C   0  0  0  0  0  0
  193.7321  217.9585  257.2293 C   0  0  0  0  0  0
  192.2140  220.3400  260.3843 N   0  0  0  0  0  0
  191.2426  221.2632  260.3573 C   0  0  0  0  0  0
  190.9960  221.9524  261.4522 N   0  3  0  0  0  0
  190.4873  221.5485  259.3075 N   0  0  0  0  0  0
  186.7372  212.9005  255.1495 C   0  0  0  0  0  0
  192.8644  216.9516  249.9769 C   0  0  0  0  0  0
  198.0219  218.5836  252.5283 S   0  0  0  0  0  0
  198.6476  218.3459  254.2229 C   0  0  0  0  0  0
  198.8685  216.9121  254.7811 C   0  0  2  0  0  0
  200.0291  216.2038  254.1410 N   0  3  0  0  0  0
  197.5856  215.9943  254.7389 C   0  0  0  0  0  0
  197.7705  214.7676  254.5663 O   0  0  0  0  0  0
  196.5067  216.5757  254.9960 O   0  5  0  0  0  0
  198.1963  214.3285  249.1202 H   0  0  0  0  0  0
  197.3489  217.0988  249.4827 H   0  0  0  0  0  0
  195.7539  217.7845  250.9001 H   0  0  0  0  0  0
  194.6287  216.0753  252.8919 H   0  0  0  0  0  0
  193.2014  217.2695  254.2196 H   0  0  0  0  0  0
  192.7990  220.0912  253.6721 H   0  0  0  0  0  0
  191.5261  219.0757  256.6615 H   0  0  0  0  0  0
  189.0246  218.0323  255.4702 H   0  0  0  0  0  0
  190.7452  216.4633  254.4896 H   0  0  0  0  0  0
  191.2744  214.1101  256.2823 H   0  0  0  0  0  0
  189.1296  213.3646  256.1484 H   0  0  0  0  0  0
  197.6383  213.0980  247.3473 H   0  0  0  0  0  0
  195.9354  213.2676  246.9176 H   0  0  0  0  0  0
  197.1698  214.1032  245.9723 H   0  0  0  0  0  0
  198.7625  215.5207  251.6437 H   0  0  0  0  0  0
  199.6262  215.7391  250.1516 H   0  0  0  0  0  0
  193.2074  215.1898  251.1847 H   0  0  0  0  0  0
  192.2493  216.4112  251.9608 H   0  0  0  0  0  0
  194.7456  219.9439  255.3949 H   0  0  0  0  0  0
  193.4259  221.0103  255.6838 H   0  0  0  0  0  0
  189.7272  218.3069  258.4246 H   0  0  0  0  0  0
  189.0927  219.6345  257.5009 H   0  0  0  0  0  0
  188.0149  212.7477  253.4532 H   0  0  0  0  0  0
  190.3114  211.3366  254.0879 H   0  0  0  0  0  0
  189.3358  208.6441  253.7586 H   0  0  0  0  0  0
  190.5602  207.8001  251.9889 H   0  0  0  0  0  0
  192.0914  208.4945  251.5158 H   0  0  0  0  0  0
  191.4705  209.1713  255.8830 H   0  0  0  0  0  0
  190.9668  207.6153  255.2904 H   0  0  0  0  0  0
  188.6699  208.0676  256.1760 H   0  0  0  0  0  0
  189.2123  209.5195  256.9713 H   0  0  0  0  0  0
  192.6100  214.9796  253.6828 H   0  0  0  0  0  0
  193.3297  215.0919  255.2729 H   0  0  0  0  0  0
  193.2826  212.5433  255.4373 H   0  0  0  0  0  0
  192.4820  212.5386  253.8971 H   0  0  0  0  0  0
  194.2631  213.1630  252.6276 H   0  0  0  0  0  0
  195.2163  213.8294  253.9161 H   0  0  0  0  0  0
  194.8174  211.0622  252.9541 H   0  0  0  0  0  0
  197.1428  211.5779  256.2508 H   0  0  0  0  0  0
  196.1392  212.9003  255.7216 H   0  0  0  0  0  0
  197.0280  209.5361  255.1918 H   0  0  0  0  0  0
  191.0588  207.7760  258.0395 H   0  0  0  0  0  0
  189.8848  206.6131  257.4724 H   0  0  0  0  0  0
  188.4940  208.5470  258.9793 H   0  0  0  0  0  0
  187.6328  208.0148  260.9746 H   0  0  0  0  0  0
  190.0341  205.4077  261.0628 H   0  0  0  0  0  0
  190.6870  205.7638  259.5024 H   0  0  0  0  0  0
  186.9348  218.7961  257.3217 H   0  0  0  0  0  0
  187.5039  217.1732  257.1903 H   0  0  0  0  0  0
  187.7804  218.4863  259.8717 H   0  0  0  0  0  0
  186.2018  217.9330  259.4204 H   0  0  0  0  0  0
  188.7654  216.4379  259.8701 H   0  0  0  0  0  0
  185.2909  214.3452  259.4671 H   0  0  0  0  0  0
  185.2778  216.0280  259.0609 H   0  0  0  0  0  0
  187.2203  213.3105  260.1751 H   0  0  0  0  0  0
  192.8884  221.1739  257.9149 H   0  0  0  0  0  0
  192.6987  217.7062  260.4519 H   0  0  0  0  0  0
  193.6070  216.3308  258.6293 H   0  0  0  0  0  0
  194.1307  217.3367  256.4406 H   0  0  0  0  0  0
  192.5560  220.1275  261.3123 H   0  0  0  0  0  0
  190.5394  222.8492  261.3975 H   0  0  0  0  0  0
  189.7446  222.2254  259.3891 H   0  0  0  0  0  0
  190.6285  221.0509  258.4435 H   0  0  0  0  0  0
  185.9122  212.4341  254.6108 H   0  0  0  0  0  0
  186.6701  212.5945  256.1927 H   0  0  0  0  0  0
  186.5757  213.9773  255.1042 H   0  0  0  0  0  0
  191.9370  216.5863  249.5346 H   0  0  0  0  0  0
  192.7720  218.0335  250.0806 H   0  0  0  0  0  0
  193.6614  216.7509  249.2590 H   0  0  0  0  0  0
  199.5798  218.9053  254.2956 H   0  0  0  0  0  0
  197.9590  218.8775  254.8818 H   0  0  0  0  0  0
  199.1738  216.9755  255.8265 H   0  0  0  0  0  0
  200.1643  215.3103  254.5927 H   0  0  0  0  0  0
  199.8390  216.0769  253.1577 H   0  0  0  0  0  0
  188.2748  206.6959  261.9176 H   0  0  0  0  0  0
  196.1709  209.3697  253.6883 H   0  0  0  0  0  0
  188.7108  214.1958  260.3207 H   0  0  0  0  0  0
  191.2558  221.5736  262.3591 H   0  0  0  0  0  0
  200.8582  216.7685  254.2576 H   0  0  0  0  0  0
  1  2  1  0  0  0
  1 18  1  0  0  0
  1 19  2  0  0  0
  2  3  1  0  0  0
  2 77  1  0  0  0
  3  4  1  0  0  0
  3 20  1  0  0  0
  3 78  1  0  0  0
  4  5  1  0  0  0
  4 22  2  0  0  0
  5  6  1  0  0  0
  5 79  1  0  0  0
  6  7  1  0  0  0
  6 23  1  0  0  0
  6 80  1  0  0  0
  7  8  1  0  0  0
  7 24  2  0  0  0
  8  9  1  0  0  0
  8 81  1  0  0  0
  9 10  1  0  0  0
  9 25  1  0  0  0
  9 82  1  0  0  0
 10 11  1  0  0  0
 10 26  2  0  0  0
 11 12  1  0  0  0
 11 83  1  0  0  0
 12 13  1  0  0  0
 12 27  1  0  0  0
 12 84  1  0  0  0
 13 14  1  0  0  0
 13 33  2  0  0  0
 14 15  1  0  0  0
 14 85  1  0  0  0
 15 16  1  0  0  0
 15 40  1  0  0  0
 15 86  1  0  0  0
 16 17  1  0  0  0
 16 34  2  0  0  0
 17 28  1  0  0  0
 17 87  1  0  0  0
 18 88  1  0  0  0
 18 89  1  0  0  0
 18 90  1  0  0  0
 20 21  1  0  0  0
 20 91  1  0  0  0
 20 92  1  0  0  0
 21 70  1  0  0  0
 23 69  1  0  0  0
 23 93  1  0  0  0
 23 94  1  0  0  0
 25 58  1  0  0  0
 25 95  1  0  0  0
 25 96  1  0  0  0
 27 52  1  0  0  0
 27 97  1  0  0  0
 27 98  1  0  0  0
 28 29  1  0  0  0
 28 68  1  0  0  0
 28 99  1  0  0  0
 29 30  1  0  0  0
 29 35  2  0  0  0
 30 31  1  0  0  0
 30100  1  0  0  0
 31 32  1  0  0  0
 31 38  1  0  0  0
 31101  1  0  0  0
 32 36  1  0  0  0
 32 37  2  0  0  0
 36102  1  0  0  0
 36103  1  0  0  0
 38 39  1  0  0  0
 38104  1  0  0  0
 38105  1  0  0  0
 39 47  1  0  0  0
 39106  1  0  0  0
 39107  1  0  0  0
 40 41  1  0  0  0
 40108  1  0  0  0
 40109  1  0  0  0
 41 42  1  0  0  0
 41110  1  0  0  0
 41111  1  0  0  0
 42 43  1  0  0  0
 42112  1  0  0  0
 42113  1  0  0  0
 43 44  1  0  0  0
 43114  1  0  0  0
 44 45  1  0  0  0
 44 46  2  0  0  0
 45115  1  0  0  0
 45116  1  0  0  0
 46117  1  0  0  0
 46152  1  0  0  0
 47 48  1  0  0  0
 47118  1  0  0  0
 47119  1  0  0  0
 48 49  1  0  0  0
 48120  1  0  0  0
 49 50  2  0  0  0
 49 51  1  0  0  0
 50121  1  0  0  0
 50151  1  0  0  0
 51122  1  0  0  0
 51123  1  0  0  0
 52 53  1  0  0  0
 52124  1  0  0  0
 52125  1  0  0  0
 53 54  1  0  0  0
 53126  1  0  0  0
 53127  1  0  0  0
 54 55  1  0  0  0
 54128  1  0  0  0
 55 56  1  0  0  0
 55 57  2  0  0  0
 56129  1  0  0  0
 56130  1  0  0  0
 57131  1  0  0  0
 57153  1  0  0  0
 58 59  2  0  0  0
 58 63  1  0  0  0
 59 60  1  0  0  0
 59132  1  0  0  0
 60 61  2  0  0  0
 60 64  1  0  0  0
 61 62  1  0  0  0
 61133  1  0  0  0
 62 63  2  0  0  0
 62134  1  0  0  0
 63135  1  0  0  0
 64 65  1  0  0  0
 64136  1  0  0  0
 65 66  2  0  0  0
 65 67  1  0  0  0
 66137  1  0  0  0
 66154  1  0  0  0
 67138  1  0  0  0
 67139  1  0  0  0
 68140  1  0  0  0
 68141  1  0  0  0
 68142  1  0  0  0
 69143  1  0  0  0
 69144  1  0  0  0
 69145  1  0  0  0
 70 71  1  0  0  0
 71 72  1  0  0  0
 71146  1  0  0  0
 71147  1  0  0  0
 72 74  1  0  0  0
 72 73  1  0  0  0
 72148  1  0  0  0
 73149  1  0  0  0
 73150  1  0  0  0
 73155  1  0  0  0
 74 75  2  0  0  0
 74 76  1  0  0  0
M  CHG  6  46   1  50   1  57   1  66   1  73   1  76  -1
M  END
> <s_m_entry_id>
16

> <s_m_entry_name>
STS005-ligand-20230714.49

> <s_m_Source_Path>
D:\xubinbin\STS005

> <s_m_Source_File>
prime_mmgbsa_all-20230714-out.maegz

> <i_m_Source_File_Index>
16

> <s_psp_Prime_MMGBSA_Input_Structure_Hash>
e1204f654024deefe57f4e25b8d17d33b6d56f1535b42c935378a43b

> <i_psp_number_heavy_atoms>
76

> <b_psp_distorted_structure>
1

> <i_psp_model_num>
0

> <r_psp_Prime_Coulomb>
-43142.1174781314

> <r_psp_Prime_Covalent>
7586.98933856605

> <r_psp_Prime_vdW>
-6870.21634194429

> <r_psp_Prime_Lipo>
-3893.54070727334

> <r_psp_Prime_Solv_GB>
-13187.6145966025

> <r_psp_Prime_Energy>
-60592.9289821356

> <s_psp_Prime_Energy_Force_Field>
S-OPLS

> <s_psp_Prime_Energy_Solvent_Model>
VSGB2.1

> <r_psp_Prime_Bond_Covalent>
956.47890678087

> <r_psp_Prime_Bond_SGB>
111548.796418244

> <r_psp_Prime_Angle_Covalent>
3215.83310776286

> <r_psp_Prime_Angle_SGB>
-44164.7164610602

> <r_psp_Prime_Torsion_Covalent>
3414.67732402232

> <r_psp_Prime_NB14_LJ>
7965.25731408387

> <r_psp_Prime_NB14_Lipo>
0

> <r_psp_Prime_NB14_Elec>
48378.0048030308

> <r_psp_Prime_NB14_SGB>
-41217.8011763018

> <r_psp_Prime_NBShort_LJ>
-14070.3200128382

> <r_psp_Prime_NBShort_Lipo>
-3893.54070727334

> <r_psp_Prime_NBShort_Elec>
-95999.7978217774

> <r_psp_Prime_NBShort_SGB>
45267.0344267313

> <r_psp_Prime_NBLong_LJ>
-765.153643189971

> <r_psp_Prime_NBLong_Lipo>
0

> <r_psp_Prime_NBLong_Elec>
4479.67554061521

> <r_psp_Prime_NBLong_SGB>
-4294.36824457041

> <r_psp_Prime_Self_SGB>
-80326.5595596453

> <r_psp_Prime_Hbond>
-778.361106604426

> <r_psp_Prime_Packing>
-136.00913152471

> <r_psp_Prime_SelfCont>
-172.058958621051

> <i_lp_mmshare_version>
54117

> <s_epik_input>
Tz1DKFtPSF0pW0NAQEhdKFtOSDJdKVtDSDJdU1NbQ0gyXVtDQEBIXShbTkhdQyg9TylbQ0gzXSlDKD1PKVtOSF1bQ0BIXShbQ0gyXVtDSDNdKUMoPU8pW05IXVtDQEhdKFtDSDJdYzFbY0hdYyhbY0hdW2NIXVtjSF0xKVtOSF0vQyg9Ti9bSF0pW05IMl0pQyg9TylbTkhdW0NASF0oW0NIMl1bQ0gyXVtDSDJdW05IXS9DKFtOSDJdKT1OL1tIXSlDKD1PKVtOSF1bQ0BIXShbQ0gyXVtDSDJdW0NIMl1bTkhdL0MoW05IMl0pPU4vW0hdKUMoPU8pW05IXVtDQEhdKFtDSDNdKUMoPU8pW05IXVtDQEBIXShDKD1PKVtOSDJdKVtDSDJdW0NIMl1bQ0gyXVtOSF0vQyg9Ti9bSF0pW05IMl0=

> <s_epik_cmdline>
J2VwaWtfcHl0aG9uJywgJy1waCcsICc3LjAnLCAnLXRuJywgJzgnLCAnLW1hJywgJzUwMCcsICctaW1hZScsICc8aW5maWxlLm1hZT4nLCAnLW9tYWUnLCAnPG91dGZpbGUubWFlPic=

> <r_epik_Ionization_Penalty>
  0.0183

> <r_epik_Ionization_Penalty_Charging>
  0.0183

> <r_epik_Ionization_Penalty_Neutral>
  0.0000

> <r_epik_State_Penalty>
  0.0144

> <r_epik_Charging_Adjusted_Penalty>
0.032687937344458

> <i_epik_Tot_Q>
4

> <i_epik_Tot_abs_Q>
6

> <s_epik_Chemistry_Notes>
This compound has an imine and may undergo hydrolysis.

> <i_f3d_flags>
0

> <s_lp_Force_Field>
S-OPLS

> <r_lp_Energy>
11.325461

> <b_lp_Chiralities_Consistent>
1

> <s_lp_Variant>
079-1

> <s_i_glide_gridfile>
glide-grid_D-site

> <i_i_glide_lignum>
97

> <i_i_glide_rotatable_bonds>
47

> <r_i_docking_score>
-7.85792807477875

> <r_i_glide_ligand_efficiency>
-0.103393790457615

> <r_i_glide_ligand_efficiency_sa>
-0.437957855453649

> <r_i_glide_ligand_efficiency_ln>
-1.47408012616078

> <r_glide_XP_GScore>
-7.87232807477876

> <r_i_glide_gscore>
-7.87232807477876

> <r_i_glide_evdw>
-33.437686920166

> <r_i_glide_ecoul>
-48.4150428771973

> <r_i_glide_energy>
-81.8527297973633

> <r_i_glide_einternal>
29.6698169708252

> <r_i_glide_emodel>
-90.6591949462891

> <r_glide_XP_HBond>
-2.96496324168766

> <i_i_glide_confnum>
1

> <i_i_glide_posenum>
3

> <r_i_glide_eff_state_penalty>
0.0144

> <i_glide_XP_PoseRank>
1

> <s_psp_MMGBSA_moved_residues>


> <r_psp_MMGBSA_dG_Bind>
-49.8520172587523

> <r_psp_MMGBSA_dG_Bind_Coulomb>
-548.107739923231

> <r_psp_MMGBSA_dG_Bind_Covalent>
9.69529822112963

> <r_psp_MMGBSA_dG_Bind_Hbond>
-10.5383708295288

> <r_psp_MMGBSA_dG_Bind_Lipo>
-2.56768340760118

> <r_psp_MMGBSA_dG_Bind_Packing>
0

> <r_psp_MMGBSA_dG_Bind_SelfCont>
0

> <r_psp_MMGBSA_dG_Bind_Solv_GB>
553.336904244419

> <r_psp_MMGBSA_dG_Bind_vdW>
-51.6704255639543

> <r_psp_Lig_Strain_Energy>
27.4262117276373

> <r_psp_Lig_Strain_Coulomb>
-18.5342014673826

> <r_psp_Lig_Strain_Covalent>
9.69529822112698

> <r_psp_Lig_Strain_Hbond>
0

> <r_psp_Lig_Strain_Lipo>
4.50561133419976

> <r_psp_Lig_Strain_Packing>
0

> <r_psp_Lig_Strain_SelfCont>
0

> <r_psp_Lig_Strain_Solv_GB>
27.9935363321942

> <r_psp_Lig_Strain_vdW>
3.76596730749879

> <r_psp_Ligand_Energy>
-336.204096718904

> <r_psp_Ligand_Coulomb>
-123.718098963145

> <r_psp_Ligand_Covalent>
41.5418643471438

> <r_psp_Ligand_Hbond>
0

> <r_psp_Ligand_Lipo>
-13.9242618039315

> <r_psp_Ligand_Packing>
0

> <r_psp_Ligand_SelfCont>
0

> <r_psp_Ligand_Solv_GB>
-244.607283883418

> <r_psp_Ligand_vdW>
4.50368358444724

> <r_psp_Complex_Energy>
-60592.9289821356

> <r_psp_Complex_Coulomb>
-43142.1174781314

> <r_psp_Complex_Covalent>
7586.98933856605

> <r_psp_Complex_Hbond>
-778.361106604426

> <r_psp_Complex_Lipo>
-3893.54070727334

> <r_psp_Complex_Packing>
-136.00913152471

> <r_psp_Complex_SelfCont>
-172.058958621051

> <r_psp_Complex_Solv_GB>
-13187.6145966025

> <r_psp_Complex_vdW>
-6870.21634194429

> <r_psp_Receptor_Energy>
-60206.872868158

> <r_psp_Receptor_Coulomb>
-42470.291639245

> <r_psp_Receptor_Covalent>
7535.75217599777

> <r_psp_Receptor_Hbond>
-767.822735774897

> <r_psp_Receptor_Lipo>
-3877.04876206181

> <r_psp_Receptor_Packing>
-136.00913152471

> <r_psp_Receptor_SelfCont>
-172.058958621051

> <r_psp_Receptor_Solv_GB>
-13496.3442169635

> <r_psp_Receptor_vdW>
-6823.04959996478

> <r_psp_MMGBSA_dG_Bind(NS)>
-77.2782289863899

> <r_psp_MMGBSA_dG_Bind(NS)_Coulomb>
-529.57353845585

> <r_psp_MMGBSA_dG_Bind(NS)_Covalent>
2.72848410531878e-12

> <r_psp_MMGBSA_dG_Bind(NS)_Hbond>
-10.5383708295288

> <r_psp_MMGBSA_dG_Bind(NS)_Lipo>
-7.07329474180096

> <r_psp_MMGBSA_dG_Bind(NS)_Packing>
0

> <r_psp_MMGBSA_dG_Bind(NS)_SelfCont>
0

> <r_psp_MMGBSA_dG_Bind(NS)_Solv_GB>
525.343367912226

> <r_psp_MMGBSA_dG_Bind(NS)_vdW>
-55.4363928714529

> <r_psp_Rec_Strain_Energy>
0

> <r_psp_Rec_Strain_Coulomb>
0

> <r_psp_Rec_Strain_Covalent>
0

> <r_psp_Rec_Strain_Hbond>
0

> <r_psp_Rec_Strain_Lipo>
0

> <r_psp_Rec_Strain_Packing>
0

> <r_psp_Rec_Strain_SelfCont>
0

> <r_psp_Rec_Strain_Solv_GB>
0

> <r_psp_Rec_Strain_vdW>
0

> <r_psp_Prime_MMGBSA_ligand_efficiency>
-0.655947595509899

> <r_psp_Prime_MMGBSA_ligand_efficiency_sa>
-0.983921393264848

> <r_psp_Prime_MMGBSA_ligand_efficiency_ln>
-9.35181223228746

> <Name>
79

> <s_m_subgroup_title>
prime_mmgbsa_all-20230714-out

> <s_m_subgroupid>
prime_mmgbsa_all-20230714-out

> <b_m_subgroup_collapsed>
0

$$$$
